
OS:Version,
  {baf2abd3-71cf-45e6-a2f9-9941b34d6be4}, !- Handle
  1.6.0;                                  !- Version Identifier

OS:ClimateZones,
  {135edfab-17e7-40db-a436-27d385a8cd6d}, !- Handle
  ,                                       !- Active Institution
  ,                                       !- Active Year
  ASHRAE,                                 !- Climate Zone Institution Name 1
  ANSI/ASHRAE Standard 169,               !- Climate Zone Document Name 1
  2006,                                   !- Climate Zone Document Year 1
  ,                                       !- Climate Zone Value 1
  CEC,                                    !- Climate Zone Institution Name 2
  California Climate Zone Descriptions,   !- Climate Zone Document Name 2
  1995,                                   !- Climate Zone Document Year 2
  ;                                       !- Climate Zone Value 2

OS:YearDescription,
  {513d8dda-86cb-442a-b01c-1f7f0e0ac70e}; !- Handle

OS:RadianceParameters,
  {270a96f1-3c86-4b75-a667-cdf22790e2c8}, !- Handle
  1,                                      !- Accumulated Rays per Record
  0,                                      !- Direct Threshold
  1,                                      !- Direct Certainty
  1,                                      !- Direct Jitter
  1,                                      !- Direct Pretest
  6,                                      !- Ambient Bounces VMX
  2,                                      !- Ambient Bounces DMX
  4050,                                   !- Ambient Divisions VMX
  512,                                    !- Ambient Divisions DMX
  256,                                    !- Ambient Supersamples
  0.001,                                  !- Limit Weight VMX
  0.001,                                  !- Limit Weight DMX
  500,                                    !- Klems Sampling Density
  146;                                    !- Sky Discretization Resolution

OS:SimulationControl,
  {2c487a4c-bac9-4ac5-b669-1e49d9da7c2b}, !- Handle
  ,                                       !- Do Zone Sizing Calculation
  ,                                       !- Do System Sizing Calculation
  ,                                       !- Do Plant Sizing Calculation
  No,                                     !- Run Simulation for Sizing Periods
  ,                                       !- Run Simulation for Weather File Run Periods
  0.04,                                   !- Loads Convergence Tolerance Value
  ,                                       !- Temperature Convergence Tolerance Value {deltaC}
  ,                                       !- Solar Distribution
  ,                                       !- Maximum Number of Warmup Days
  2;                                      !- Minimum Number of Warmup Days

OS:Sizing:Parameters,
  {dde5af6f-7923-4600-a28a-7556673a0266}, !- Handle
  1.25,                                   !- Heating Sizing Factor
  1.15;                                   !- Cooling Sizing Factor

OS:ProgramControl,
  {05027a99-f2b3-4aeb-afc6-1425fbb4371d}; !- Handle

OS:Timestep,
  {4ebc9f1e-4707-402e-9844-67eb1ffbd522}, !- Handle
  2;                                      !- Number of Timesteps per Hour

OS:OutputControl:ReportingTolerances,
  {65797aa2-06a9-45fe-b69d-bc6e060399d3}; !- Handle

OS:ConvergenceLimits,
  {9fc11aba-8822-4f3d-970c-46391ba4040d}; !- Handle

OS:ShadowCalculation,
  {ca758bea-4416-4626-9bba-3d8795c79bd6}, !- Handle
  7,                                      !- Calculation Frequency
  15000;                                  !- Maximum Figures in Shadow Overlap Calculations

OS:SurfaceConvectionAlgorithm:Inside,
  {aaabfc36-718a-4ab0-b622-f186ebb45230}, !- Handle
  TARP;                                   !- Algorithm

OS:SurfaceConvectionAlgorithm:Outside,
  {9a0a9f6f-4bbd-4b12-a121-9492a1fcd7d6}, !- Handle
  DOE-2;                                  !- Algorithm

OS:HeatBalanceAlgorithm,
  {9d93e563-e1e0-46d7-9e39-d1c8aceb7212}, !- Handle
  ConductionTransferFunction,             !- Algorithm
  200;                                    !- Surface Temperature Upper Limit {F}

OS:ZoneAirHeatBalanceAlgorithm,
  {8520d93e-310f-4696-9bcd-36228bfdd743}, !- Handle
  AnalyticalSolution;                     !- Algorithm

OS:ZoneAirContaminantBalance,
  {eb5fc3ae-fb22-4160-8fcb-3e3b22b000d3}; !- Handle

OS:ZoneCapacitanceMultiplier:ResearchSpecial,
  {4020ce4f-5a7a-4849-8028-8305d7b751b1}, !- Handle
  ,                                       !- Temperature Capacity Multiplier
  ,                                       !- Humidity Capacity Multiplier
  ;                                       !- Carbon Dioxide Capacity Multiplier

OS:RunPeriod,
  {28df894d-6af9-4fb8-8f56-df1753344aa3}, !- Handle
  Run Period 1,                           !- Name
  1,                                      !- Begin Month
  1,                                      !- Begin Day of Month
  12,                                     !- End Month
  31,                                     !- End Day of Month
  ,                                       !- Use Weather File Holidays and Special Days
  ,                                       !- Use Weather File Daylight Saving Period
  ,                                       !- Apply Weekend Holiday Rule
  ,                                       !- Use Weather File Rain Indicators
  ,                                       !- Use Weather File Snow Indicators
  ;                                       !- Number of Times Runperiod to be Repeated

OS:Building,
  {bf305633-c5a1-4881-9edf-ca5e1a8e1274}, !- Handle
  Building 1,                             !- Name
  ,                                       !- Building Sector Type
  ,                                       !- North Axis {deg}
  ,                                       !- Nominal Floor to Floor Height {m}
  ,                                       !- Space Type Name
  ,                                       !- Default Construction Set Name
  {2f1a83be-dec5-4a9e-bdb5-721142e4fae4}, !- Default Schedule Set Name
  ,                                       !- Standards Number of Stories
  ,                                       !- Standards Number of Above Ground Stories
  AssistedLiving;                         !- Standards Building Type

OS:LifeCycleCost:Parameters,
  {231cf8a0-f0e7-4251-a99f-11f0d464e661}, !- Handle
  FEMP,                                   !- Analysis Type
  ,                                       !- Discounting Convention
  ,                                       !- Inflation Approach
  ,                                       !- Real Discount Rate
  ,                                       !- Nominal Discount Rate
  ,                                       !- Inflation
  ,                                       !- Base Date Month
  ,                                       !- Base Date Year
  ,                                       !- Service Date Month
  ,                                       !- Service Date Year
  ,                                       !- Length of Study Period in Years
  ,                                       !- Tax Rate
  ,                                       !- Depreciation Method
  Yes;                                    !- Use NIST Fuel Escalation Rates

OS:Facility,
  {3ba8e45b-b833-44eb-a723-ea6c3946dc96}; !- Handle

OS:SpaceType,
  {20db2b8a-de41-4c63-b5be-cd80474b9e8b}, !- Handle
  AssistedLiving|BlendPat|DOE Ref Pre-1980|ASHRAE 169-2006-5A, !- Name
  {d10f2421-1d48-4f6b-a579-951bc1c2b844}, !- Default Construction Set Name
  ,                                       !- Default Schedule Set Name
  {788deba8-a4b1-4d78-a365-08777c3d3eaf}, !- Group Rendering Name
  {b4196b44-73f0-44ab-9818-d82bb74a3a32}, !- Design Specification Outdoor Air Object Name
  AssistedLiving,                         !- Standards Building Type
  BlendPat;                               !- Standards Space Type

OS:Rendering:Color,
  {788deba8-a4b1-4d78-a365-08777c3d3eaf}, !- Handle
  Rendering Color 1,                      !- Name
  78,                                     !- Rendering Red Value
  167,                                    !- Rendering Green Value
  222;                                    !- Rendering Blue Value

OS:SpaceType,
  {c12c36be-a9a0-40cf-96a4-b4bed08757e6}, !- Handle
  AssistedLiving|BlendCom|DOE Ref Pre-1980|ASHRAE 169-2006-5A, !- Name
  {d10f2421-1d48-4f6b-a579-951bc1c2b844}, !- Default Construction Set Name
  ,                                       !- Default Schedule Set Name
  {da69f6da-feae-4879-bd2f-a9dd13d73d64}, !- Group Rendering Name
  {2707b992-cedc-46b3-961f-059050e0c67b}, !- Design Specification Outdoor Air Object Name
  AssistedLiving,                         !- Standards Building Type
  BlendCom;                               !- Standards Space Type

OS:Rendering:Color,
  {da69f6da-feae-4879-bd2f-a9dd13d73d64}, !- Handle
  Rendering Color 2,                      !- Name
  31,                                     !- Rendering Red Value
  169,                                    !- Rendering Green Value
  34;                                     !- Rendering Blue Value

OS:SpaceType,
  {a8fbdb43-9e48-4611-b076-18c9a753e915}, !- Handle
  AssistedLiving|Kitchen|DOE Ref Pre-1980|ASHRAE 169-2006-5A, !- Name
  {d10f2421-1d48-4f6b-a579-951bc1c2b844}, !- Default Construction Set Name
  {f908a2bd-78ac-4274-af30-deb1d67501a1}, !- Default Schedule Set Name
  {55499357-9118-4b12-968e-93c25b0386e9}, !- Group Rendering Name
  {4c42f587-dbd4-43ba-9c21-5c6baf94c835}, !- Design Specification Outdoor Air Object Name
  AssistedLiving,                         !- Standards Building Type
  Kitchen;                                !- Standards Space Type

OS:Rendering:Color,
  {55499357-9118-4b12-968e-93c25b0386e9}, !- Handle
  Rendering Color 3,                      !- Name
  78,                                     !- Rendering Red Value
  222,                                    !- Rendering Green Value
  133;                                    !- Rendering Blue Value

OS:Schedule:Ruleset,
  {3ef4b4ab-dffb-407b-bbb8-724428e8afd9}, !- Handle
  0600|2200|AssistedLiving|default|hoo,   !- Name
  {7e917a4b-ebe7-441e-aa0c-39ef0823deaa}, !- Schedule Type Limits Name
  {b80f33b5-6077-4e1f-b931-68c1307562bc}, !- Default Day Schedule Name
  {d6789047-75e3-40e3-b8b4-e064aba2bf11}, !- Summer Design Day Schedule Name
  {6635f38e-4188-45f0-810a-e286eaf87ec3}; !- Winter Design Day Schedule Name

OS:Schedule:Day,
  {b80f33b5-6077-4e1f-b931-68c1307562bc}, !- Handle
  0600|2200|AssistedLiving|default|hoo Schedule Week Day, !- Name
  {7e917a4b-ebe7-441e-aa0c-39ef0823deaa}, !- Schedule Type Limits Name
  ,                                       !- Interpolate to Timestep
  6,                                      !- Hour 1
  0,                                      !- Minute 1
  0,                                      !- Value Until Time 1
  22,                                     !- Hour 2
  0,                                      !- Minute 2
  1,                                      !- Value Until Time 2
  24,                                     !- Hour 3
  0,                                      !- Minute 3
  0;                                      !- Value Until Time 3

OS:Schedule:Day,
  {3c399e34-762b-415e-909f-b3efa55e121c}, !- Handle
  Schedule Day 2,                         !- Name
  ,                                       !- Schedule Type Limits Name
  ,                                       !- Interpolate to Timestep
  24,                                     !- Hour 1
  0,                                      !- Minute 1
  0;                                      !- Value Until Time 1

OS:Schedule:Day,
  {6635f38e-4188-45f0-810a-e286eaf87ec3}, !- Handle
  0600|2200|AssistedLiving|default|hoo Winter Design Day, !- Name
  {7e917a4b-ebe7-441e-aa0c-39ef0823deaa}, !- Schedule Type Limits Name
  ,                                       !- Interpolate to Timestep
  24,                                     !- Hour 1
  0,                                      !- Minute 1
  0;                                      !- Value Until Time 1

OS:Schedule:Day,
  {f315d371-ecb4-4971-9be4-a2f620f79572}, !- Handle
  Schedule Day 3,                         !- Name
  ,                                       !- Schedule Type Limits Name
  ,                                       !- Interpolate to Timestep
  24,                                     !- Hour 1
  0,                                      !- Minute 1
  0;                                      !- Value Until Time 1

OS:Schedule:Day,
  {d6789047-75e3-40e3-b8b4-e064aba2bf11}, !- Handle
  0600|2200|AssistedLiving|default|hoo Summer Design Day, !- Name
  {7e917a4b-ebe7-441e-aa0c-39ef0823deaa}, !- Schedule Type Limits Name
  ,                                       !- Interpolate to Timestep
  24,                                     !- Hour 1
  0,                                      !- Minute 1
  1;                                      !- Value Until Time 1

OS:DefaultScheduleSet,
  {2f1a83be-dec5-4a9e-bdb5-721142e4fae4}, !- Handle
  Building Hours of Operation,            !- Name
  {3ef4b4ab-dffb-407b-bbb8-724428e8afd9}, !- Hours of Operation Schedule Name
  ,                                       !- Number of People Schedule Name
  ,                                       !- People Activity Level Schedule Name
  ,                                       !- Lighting Schedule Name
  ,                                       !- Electric Equipment Schedule Name
  ,                                       !- Gas Equipment Schedule Name
  ,                                       !- Hot Water Equipment Schedule Name
  ,                                       !- Infiltration Schedule Name
  ,                                       !- Steam Equipment Schedule Name
  ;                                       !- Other Equipment Schedule Name

OS:ScheduleTypeLimits,
  {7e917a4b-ebe7-441e-aa0c-39ef0823deaa}, !- Handle
  OnOff,                                  !- Name
  0,                                      !- Lower Limit Value {BasedOnField A4}
  1,                                      !- Upper Limit Value {BasedOnField A4}
  Discrete,                               !- Numeric Type
  Availability;                           !- Unit Type

OS:Schedule:Ruleset,
  {c0d0dd06-9d44-4f85-be89-ec7d840347ce}, !- Handle
  0600|2200|AssistedLiving|Kitchen|htg_setpoint, !- Name
  {2d054dd7-7f8e-41c1-beff-2a1e73a469f8}, !- Schedule Type Limits Name
  {ae7e5fd8-a1c1-4cfc-88c6-6d8f2e856c3d}, !- Default Day Schedule Name
  {686859b5-d5be-4a50-8fcb-22e72454d933}, !- Summer Design Day Schedule Name
  {ce257651-322c-4fdc-ac82-7c61cb18c667}; !- Winter Design Day Schedule Name

OS:ScheduleTypeLimits,
  {2d054dd7-7f8e-41c1-beff-2a1e73a469f8}, !- Handle
  Thermostat Heating Setpoint Schedule Type Limits, !- Name
  0,                                      !- Lower Limit Value {BasedOnField A4}
  100,                                    !- Upper Limit Value {BasedOnField A4}
  Continuous,                             !- Numeric Type
  Temperature;                            !- Unit Type

OS:Schedule:Day,
  {ae7e5fd8-a1c1-4cfc-88c6-6d8f2e856c3d}, !- Handle
  0600|2200|AssistedLiving|Kitchen|htg_setpoint |default, !- Name
  {2d054dd7-7f8e-41c1-beff-2a1e73a469f8}, !- Schedule Type Limits Name
  ,                                       !- Interpolate to Timestep
  24,                                     !- Hour 1
  0,                                      !- Minute 1
  19.0000000000001;                       !- Value Until Time 1

OS:Schedule:Day,
  {686859b5-d5be-4a50-8fcb-22e72454d933}, !- Handle
  0600|2200|AssistedLiving|Kitchen|htg_setpoint Summer Design Day, !- Name
  {2d054dd7-7f8e-41c1-beff-2a1e73a469f8}, !- Schedule Type Limits Name
  ,                                       !- Interpolate to Timestep
  24,                                     !- Hour 1
  0,                                      !- Minute 1
  19.0000000000001;                       !- Value Until Time 1

OS:Schedule:Day,
  {ce257651-322c-4fdc-ac82-7c61cb18c667}, !- Handle
  0600|2200|AssistedLiving|Kitchen|htg_setpoint Winter Design Day, !- Name
  {2d054dd7-7f8e-41c1-beff-2a1e73a469f8}, !- Schedule Type Limits Name
  ,                                       !- Interpolate to Timestep
  24,                                     !- Hour 1
  0,                                      !- Minute 1
  19.0000000000001;                       !- Value Until Time 1

OS:Schedule:Rule,
  {c9e93fd6-538d-443f-8413-7f9c20f2f0f7}, !- Handle
  0600|2200|AssistedLiving|Kitchen|htg_setpoint |1/1-12/31|Sat/Sun Rule, !- Name
  {c0d0dd06-9d44-4f85-be89-ec7d840347ce}, !- Schedule Ruleset Name
  0,                                      !- Rule Order
  {a1cc7d4c-759b-4b48-a0df-8c14aceaccca}, !- Day Schedule Name
  Yes,                                    !- Apply Sunday
  ,                                       !- Apply Monday
  ,                                       !- Apply Tuesday
  ,                                       !- Apply Wednesday
  ,                                       !- Apply Thursday
  ,                                       !- Apply Friday
  Yes,                                    !- Apply Saturday
  ,                                       !- Apply Holiday
  DateRange,                              !- Date Specification Type
  1,                                      !- Start Month
  1,                                      !- Start Day
  12,                                     !- End Month
  31;                                     !- End Day

OS:Schedule:Day,
  {a1cc7d4c-759b-4b48-a0df-8c14aceaccca}, !- Handle
  0600|2200|AssistedLiving|Kitchen|htg_setpoint |1/1-12/31|Sat/Sun, !- Name
  {2d054dd7-7f8e-41c1-beff-2a1e73a469f8}, !- Schedule Type Limits Name
  ,                                       !- Interpolate to Timestep
  24,                                     !- Hour 1
  0,                                      !- Minute 1
  15.6;                                   !- Value Until Time 1

OS:Schedule:Ruleset,
  {c357da63-1cce-4cb4-9911-2f4ca6832043}, !- Handle
  0600|2200|AssistedLiving|Kitchen|elec_equip, !- Name
  {e82007b0-8c36-41f3-8e30-a7dcbfb98c1e}, !- Schedule Type Limits Name
  {560ec94d-b1cb-4516-bbd0-4f060abf9628}, !- Default Day Schedule Name
  {7941f801-2f90-4dd4-9ed0-a83f31c594bf}, !- Summer Design Day Schedule Name
  {d4a5d76a-eddd-4d5c-9101-2d475fe3d168}; !- Winter Design Day Schedule Name

OS:ScheduleTypeLimits,
  {e82007b0-8c36-41f3-8e30-a7dcbfb98c1e}, !- Handle
  Equipment Schedule Type Limits,         !- Name
  0,                                      !- Lower Limit Value {BasedOnField A4}
  1,                                      !- Upper Limit Value {BasedOnField A4}
  Continuous,                             !- Numeric Type
  Dimensionless;                          !- Unit Type

OS:Schedule:Day,
  {560ec94d-b1cb-4516-bbd0-4f060abf9628}, !- Handle
  0600|2200|AssistedLiving|Kitchen|elec_equip |default, !- Name
  {e82007b0-8c36-41f3-8e30-a7dcbfb98c1e}, !- Schedule Type Limits Name
  ,                                       !- Interpolate to Timestep
  7,                                      !- Hour 1
  0,                                      !- Minute 1
  0.02,                                   !- Value Until Time 1
  8,                                      !- Hour 2
  0,                                      !- Minute 2
  0.05,                                   !- Value Until Time 2
  9,                                      !- Hour 3
  0,                                      !- Minute 3
  0.1,                                    !- Value Until Time 3
  10,                                     !- Hour 4
  0,                                      !- Minute 4
  0.15,                                   !- Value Until Time 4
  11,                                     !- Hour 5
  0,                                      !- Minute 5
  0.2,                                    !- Value Until Time 5
  12,                                     !- Hour 6
  0,                                      !- Minute 6
  0.15,                                   !- Value Until Time 6
  13,                                     !- Hour 7
  0,                                      !- Minute 7
  0.25,                                   !- Value Until Time 7
  14,                                     !- Hour 8
  0,                                      !- Minute 8
  0.2,                                    !- Value Until Time 8
  15,                                     !- Hour 9
  0,                                      !- Minute 9
  0.15,                                   !- Value Until Time 9
  16,                                     !- Hour 10
  0,                                      !- Minute 10
  0.2,                                    !- Value Until Time 10
  19,                                     !- Hour 11
  0,                                      !- Minute 11
  0.3,                                    !- Value Until Time 11
  21,                                     !- Hour 12
  0,                                      !- Minute 12
  0.2,                                    !- Value Until Time 12
  22,                                     !- Hour 13
  0,                                      !- Minute 13
  0.15,                                   !- Value Until Time 13
  23,                                     !- Hour 14
  0,                                      !- Minute 14
  0.1,                                    !- Value Until Time 14
  24,                                     !- Hour 15
  0,                                      !- Minute 15
  0.05;                                   !- Value Until Time 15

OS:Schedule:Day,
  {7941f801-2f90-4dd4-9ed0-a83f31c594bf}, !- Handle
  0600|2200|AssistedLiving|Kitchen|elec_equip Summer Design Day, !- Name
  {e82007b0-8c36-41f3-8e30-a7dcbfb98c1e}, !- Schedule Type Limits Name
  ,                                       !- Interpolate to Timestep
  7,                                      !- Hour 1
  0,                                      !- Minute 1
  0.02,                                   !- Value Until Time 1
  8,                                      !- Hour 2
  0,                                      !- Minute 2
  0.05,                                   !- Value Until Time 2
  9,                                      !- Hour 3
  0,                                      !- Minute 3
  0.1,                                    !- Value Until Time 3
  10,                                     !- Hour 4
  0,                                      !- Minute 4
  0.15,                                   !- Value Until Time 4
  11,                                     !- Hour 5
  0,                                      !- Minute 5
  0.2,                                    !- Value Until Time 5
  12,                                     !- Hour 6
  0,                                      !- Minute 6
  0.15,                                   !- Value Until Time 6
  13,                                     !- Hour 7
  0,                                      !- Minute 7
  0.25,                                   !- Value Until Time 7
  14,                                     !- Hour 8
  0,                                      !- Minute 8
  0.2,                                    !- Value Until Time 8
  15,                                     !- Hour 9
  0,                                      !- Minute 9
  0.15,                                   !- Value Until Time 9
  16,                                     !- Hour 10
  0,                                      !- Minute 10
  0.2,                                    !- Value Until Time 10
  19,                                     !- Hour 11
  0,                                      !- Minute 11
  1,                                      !- Value Until Time 11
  21,                                     !- Hour 12
  0,                                      !- Minute 12
  0.2,                                    !- Value Until Time 12
  22,                                     !- Hour 13
  0,                                      !- Minute 13
  0.15,                                   !- Value Until Time 13
  23,                                     !- Hour 14
  0,                                      !- Minute 14
  0.1,                                    !- Value Until Time 14
  24,                                     !- Hour 15
  0,                                      !- Minute 15
  0.05;                                   !- Value Until Time 15

OS:Schedule:Day,
  {d4a5d76a-eddd-4d5c-9101-2d475fe3d168}, !- Handle
  0600|2200|AssistedLiving|Kitchen|elec_equip Winter Design Day, !- Name
  {e82007b0-8c36-41f3-8e30-a7dcbfb98c1e}, !- Schedule Type Limits Name
  ,                                       !- Interpolate to Timestep
  24,                                     !- Hour 1
  0,                                      !- Minute 1
  0.02;                                   !- Value Until Time 1

OS:Schedule:Ruleset,
  {3d45a5d3-dda0-4b43-ba31-cb4eaff546d9}, !- Handle
  0600|2200|AssistedLiving|default|rh,    !- Name
  {3f16521f-738c-446e-905d-e4cb2f13eb1f}, !- Schedule Type Limits Name
  {6f6ae93f-9521-4de7-969f-f2d7ba40e9c6}, !- Default Day Schedule Name
  {94d87f65-c812-474f-8cba-df56bc896832}, !- Summer Design Day Schedule Name
  {b693227d-5c32-4ce1-aa18-cf6f7244332c}; !- Winter Design Day Schedule Name

OS:ScheduleTypeLimits,
  {3f16521f-738c-446e-905d-e4cb2f13eb1f}, !- Handle
  Dimensionless Schedule Type Limits,     !- Name
  ,                                       !- Lower Limit Value {BasedOnField A4}
  ,                                       !- Upper Limit Value {BasedOnField A4}
  Continuous,                             !- Numeric Type
  Dimensionless;                          !- Unit Type

OS:Schedule:Day,
  {6f6ae93f-9521-4de7-969f-f2d7ba40e9c6}, !- Handle
  0600|2200|AssistedLiving|default|rh |default, !- Name
  {3f16521f-738c-446e-905d-e4cb2f13eb1f}, !- Schedule Type Limits Name
  ,                                       !- Interpolate to Timestep
  24,                                     !- Hour 1
  0,                                      !- Minute 1
  50;                                     !- Value Until Time 1

OS:Schedule:Day,
  {94d87f65-c812-474f-8cba-df56bc896832}, !- Handle
  0600|2200|AssistedLiving|default|rh Summer Design Day, !- Name
  {3f16521f-738c-446e-905d-e4cb2f13eb1f}, !- Schedule Type Limits Name
  ,                                       !- Interpolate to Timestep
  24,                                     !- Hour 1
  0,                                      !- Minute 1
  50;                                     !- Value Until Time 1

OS:Schedule:Day,
  {b693227d-5c32-4ce1-aa18-cf6f7244332c}, !- Handle
  0600|2200|AssistedLiving|default|rh Winter Design Day, !- Name
  {3f16521f-738c-446e-905d-e4cb2f13eb1f}, !- Schedule Type Limits Name
  ,                                       !- Interpolate to Timestep
  24,                                     !- Hour 1
  0,                                      !- Minute 1
  50;                                     !- Value Until Time 1

OS:Schedule:Ruleset,
  {c3dbb3da-004c-43b4-ab4f-b05bcfccd272}, !- Handle
  0600|2200|AssistedLiving|default|activity, !- Name
  {dc1f54a8-c1a2-4927-b9e8-35ec523a17cc}, !- Schedule Type Limits Name
  {ac3fafb2-5cf5-497b-90bd-ea74112bb8bb}, !- Default Day Schedule Name
  {afe9b817-b8aa-4d66-a4af-ccdc79f93ef8}, !- Summer Design Day Schedule Name
  {ef62e1c4-7050-4a8a-bd8a-17fd5dbd677c}; !- Winter Design Day Schedule Name

OS:ScheduleTypeLimits,
  {dc1f54a8-c1a2-4927-b9e8-35ec523a17cc}, !- Handle
  People Activity Type Limits,            !- Name
  0,                                      !- Lower Limit Value {BasedOnField A4}
  ,                                       !- Upper Limit Value {BasedOnField A4}
  Continuous,                             !- Numeric Type
  ActivityLevel;                          !- Unit Type

OS:Schedule:Day,
  {ac3fafb2-5cf5-497b-90bd-ea74112bb8bb}, !- Handle
  0600|2200|AssistedLiving|default|activity |default, !- Name
  {dc1f54a8-c1a2-4927-b9e8-35ec523a17cc}, !- Schedule Type Limits Name
  ,                                       !- Interpolate to Timestep
  24,                                     !- Hour 1
  0,                                      !- Minute 1
  120;                                    !- Value Until Time 1

OS:Schedule:Day,
  {afe9b817-b8aa-4d66-a4af-ccdc79f93ef8}, !- Handle
  0600|2200|AssistedLiving|default|activity Summer Design Day, !- Name
  {dc1f54a8-c1a2-4927-b9e8-35ec523a17cc}, !- Schedule Type Limits Name
  ,                                       !- Interpolate to Timestep
  24,                                     !- Hour 1
  0,                                      !- Minute 1
  120;                                    !- Value Until Time 1

OS:Schedule:Day,
  {ef62e1c4-7050-4a8a-bd8a-17fd5dbd677c}, !- Handle
  0600|2200|AssistedLiving|default|activity Winter Design Day, !- Name
  {dc1f54a8-c1a2-4927-b9e8-35ec523a17cc}, !- Schedule Type Limits Name
  ,                                       !- Interpolate to Timestep
  24,                                     !- Hour 1
  0,                                      !- Minute 1
  120;                                    !- Value Until Time 1

OS:Schedule:Ruleset,
  {1de0083e-3eb5-446b-bc6a-39b5f5acdce4}, !- Handle
  0600|2200|AssistedLiving|default|lighting, !- Name
  {cd7c45b6-bfc8-43ab-9d6a-137915982395}, !- Schedule Type Limits Name
  {46a140f8-9f0c-4f8c-918d-d43d85456b05}, !- Default Day Schedule Name
  {aff79c83-92dd-4adb-8d79-fb17778d36ca}, !- Summer Design Day Schedule Name
  {ac99a85a-8b3b-4066-98af-c8f55b00ba10}; !- Winter Design Day Schedule Name

OS:ScheduleTypeLimits,
  {cd7c45b6-bfc8-43ab-9d6a-137915982395}, !- Handle
  Lights Schedule Type Limits,            !- Name
  0,                                      !- Lower Limit Value {BasedOnField A4}