
OS:Version,
  {e5f188bd-c0a4-45a0-a074-3b34810a27cb}, !- Handle
  1.6.0;                                  !- Version Identifier

OS:ClimateZones,
  {135edfab-17e7-40db-a436-27d385a8cd6d}, !- Handle
  ,                                       !- Active Institution
  ,                                       !- Active Year
  ASHRAE,                                 !- Climate Zone Institution Name 1
  ANSI/ASHRAE Standard 169,               !- Climate Zone Document Name 1
  2006,                                   !- Climate Zone Document Year 1
  ,                                       !- Climate Zone Value 1
  CEC,                                    !- Climate Zone Institution Name 2
  California Climate Zone Descriptions,   !- Climate Zone Document Name 2
  1995,                                   !- Climate Zone Document Year 2
  ;                                       !- Climate Zone Value 2

OS:YearDescription,
  {513d8dda-86cb-442a-b01c-1f7f0e0ac70e}; !- Handle

OS:RadianceParameters,
  {270a96f1-3c86-4b75-a667-cdf22790e2c8}, !- Handle
  1,                                      !- Accumulated Rays per Record
  0,                                      !- Direct Threshold
  1,                                      !- Direct Certainty
  1,                                      !- Direct Jitter
  1,                                      !- Direct Pretest
  6,                                      !- Ambient Bounces VMX
  2,                                      !- Ambient Bounces DMX
  4050,                                   !- Ambient Divisions VMX
  512,                                    !- Ambient Divisions DMX
  256,                                    !- Ambient Supersamples
  0.001,                                  !- Limit Weight VMX
  0.001,                                  !- Limit Weight DMX
  500,                                    !- Klems Sampling Density
  146;                                    !- Sky Discretization Resolution

OS:SimulationControl,
  {2c487a4c-bac9-4ac5-b669-1e49d9da7c2b}, !- Handle
  ,                                       !- Do Zone Sizing Calculation
  ,                                       !- Do System Sizing Calculation
  ,                                       !- Do Plant Sizing Calculation
  No,                                     !- Run Simulation for Sizing Periods
  ,                                       !- Run Simulation for Weather File Run Periods
  0.04,                                   !- Loads Convergence Tolerance Value
  ,                                       !- Temperature Convergence Tolerance Value {deltaC}
  ,                                       !- Solar Distribution
  ,                                       !- Maximum Number of Warmup Days
  2;                                      !- Minimum Number of Warmup Days

OS:Sizing:Parameters,
  {dde5af6f-7923-4600-a28a-7556673a0266}, !- Handle
  1.25,                                   !- Heating Sizing Factor
  1.15;                                   !- Cooling Sizing Factor

OS:ProgramControl,
  {05027a99-f2b3-4aeb-afc6-1425fbb4371d}; !- Handle

OS:Timestep,
  {4ebc9f1e-4707-402e-9844-67eb1ffbd522}, !- Handle
  2;                                      !- Number of Timesteps per Hour

OS:OutputControl:ReportingTolerances,
  {65797aa2-06a9-45fe-b69d-bc6e060399d3}; !- Handle

OS:ConvergenceLimits,
  {9fc11aba-8822-4f3d-970c-46391ba4040d}; !- Handle

OS:ShadowCalculation,
  {ca758bea-4416-4626-9bba-3d8795c79bd6}, !- Handle
  7,                                      !- Calculation Frequency
  15000;                                  !- Maximum Figures in Shadow Overlap Calculations

OS:SurfaceConvectionAlgorithm:Inside,
  {aaabfc36-718a-4ab0-b622-f186ebb45230}, !- Handle
  TARP;                                   !- Algorithm

OS:SurfaceConvectionAlgorithm:Outside,
  {9a0a9f6f-4bbd-4b12-a121-9492a1fcd7d6}, !- Handle
  DOE-2;                                  !- Algorithm

OS:HeatBalanceAlgorithm,
  {9d93e563-e1e0-46d7-9e39-d1c8aceb7212}, !- Handle
  ConductionTransferFunction,             !- Algorithm
  200;                                    !- Surface Temperature Upper Limit {F}

OS:ZoneAirHeatBalanceAlgorithm,
  {8520d93e-310f-4696-9bcd-36228bfdd743}, !- Handle
  AnalyticalSolution;                     !- Algorithm

OS:ZoneAirContaminantBalance,
  {eb5fc3ae-fb22-4160-8fcb-3e3b22b000d3}; !- Handle

OS:ZoneCapacitanceMultiplier:ResearchSpecial,
  {4020ce4f-5a7a-4849-8028-8305d7b751b1}, !- Handle
  ,                                       !- Temperature Capacity Multiplier
  ,                                       !- Humidity Capacity Multiplier
  ;                                       !- Carbon Dioxide Capacity Multiplier

OS:RunPeriod,
  {28df894d-6af9-4fb8-8f56-df1753344aa3}, !- Handle
  Run Period 1,                           !- Name
  1,                                      !- Begin Month
  1,                                      !- Begin Day of Month
  12,                                     !- End Month
  31,                                     !- End Day of Month
  ,                                       !- Use Weather File Holidays and Special Days
  ,                                       !- Use Weather File Daylight Saving Period
  ,                                       !- Apply Weekend Holiday Rule
  ,                                       !- Use Weather File Rain Indicators
  ,                                       !- Use Weather File Snow Indicators
  ;                                       !- Number of Times Runperiod to be Repeated

OS:Building,
  {bf305633-c5a1-4881-9edf-ca5e1a8e1274}, !- Handle
  Building 1,                             !- Name
  ,                                       !- Building Sector Type
  ,                                       !- North Axis {deg}
  ,                                       !- Nominal Floor to Floor Height {m}
  ,                                       !- Space Type Name
  ,                                       !- Default Construction Set Name
  {0732a748-625e-4eac-bf72-d2b327af9e0b}, !- Default Schedule Set Name
  ,                                       !- Standards Number of Stories
  ,                                       !- Standards Number of Above Ground Stories
  AssistedLiving;                         !- Standards Building Type

OS:LifeCycleCost:Parameters,
  {231cf8a0-f0e7-4251-a99f-11f0d464e661}, !- Handle
  FEMP,                                   !- Analysis Type
  ,                                       !- Discounting Convention
  ,                                       !- Inflation Approach
  ,                                       !- Real Discount Rate
  ,                                       !- Nominal Discount Rate
  ,                                       !- Inflation
  ,                                       !- Base Date Month
  ,                                       !- Base Date Year
  ,                                       !- Service Date Month
  ,                                       !- Service Date Year
  ,                                       !- Length of Study Period in Years
  ,                                       !- Tax Rate
  ,                                       !- Depreciation Method
  Yes;                                    !- Use NIST Fuel Escalation Rates

OS:Facility,
  {3ba8e45b-b833-44eb-a723-ea6c3946dc96}; !- Handle

OS:SpaceType,
  {be85ac5f-98c2-4f70-96cc-0e7b2b647ccf}, !- Handle
  AssistedLiving|BlendPat|DOE Ref 2004|ASHRAE 169-2006-5A, !- Name
  {348709cb-6bf4-4d4e-9fd8-d8c062ee07c7}, !- Default Construction Set Name
  ,                                       !- Default Schedule Set Name
  {2fac1b29-dba8-4801-be56-3556e50852d7}, !- Group Rendering Name
  {6002cd6b-61e3-453f-881b-c594c3ac5441}, !- Design Specification Outdoor Air Object Name
  AssistedLiving,                         !- Standards Building Type
  BlendPat;                               !- Standards Space Type

OS:Rendering:Color,
  {2fac1b29-dba8-4801-be56-3556e50852d7}, !- Handle
  Rendering Color 1,                      !- Name
  78,                                     !- Rendering Red Value
  167,                                    !- Rendering Green Value
  222;                                    !- Rendering Blue Value

OS:SpaceType,
  {5ecf7bc2-8fd0-4443-966b-62d2c6a5ae2c}, !- Handle
  AssistedLiving|BlendCom|DOE Ref 2004|ASHRAE 169-2006-5A, !- Name
  {348709cb-6bf4-4d4e-9fd8-d8c062ee07c7}, !- Default Construction Set Name
  ,                                       !- Default Schedule Set Name
  {4174bf13-cddc-4fa4-904b-edf9d70ec7c7}, !- Group Rendering Name
  {0f9fc6fd-a1ea-438d-89d8-c0e65e3b1a08}, !- Design Specification Outdoor Air Object Name
  AssistedLiving,                         !- Standards Building Type
  BlendCom;                               !- Standards Space Type

OS:Rendering:Color,
  {4174bf13-cddc-4fa4-904b-edf9d70ec7c7}, !- Handle
  Rendering Color 2,                      !- Name
  31,                                     !- Rendering Red Value
  169,                                    !- Rendering Green Value
  34;                                     !- Rendering Blue Value

OS:SpaceType,
  {9bf81c7d-b929-4850-86c9-47d488d6f6f6}, !- Handle
  AssistedLiving|Kitchen|DOE Ref 2004|ASHRAE 169-2006-5A, !- Name
  {348709cb-6bf4-4d4e-9fd8-d8c062ee07c7}, !- Default Construction Set Name
  {37c4b804-ac72-41af-a140-b239bb068efd}, !- Default Schedule Set Name
  {eea68a75-252b-48c1-800b-ba2b563917af}, !- Group Rendering Name
  {4cc5466c-ff7f-40db-80c4-a92e89e52138}, !- Design Specification Outdoor Air Object Name
  AssistedLiving,                         !- Standards Building Type
  Kitchen;                                !- Standards Space Type

OS:Rendering:Color,
  {eea68a75-252b-48c1-800b-ba2b563917af}, !- Handle
  Rendering Color 3,                      !- Name
  78,                                     !- Rendering Red Value
  222,                                    !- Rendering Green Value
  133;                                    !- Rendering Blue Value

OS:Schedule:Ruleset,
  {8ea7074f-80a2-4307-a99d-0fc33e00d5d2}, !- Handle
  0600|2200|AssistedLiving|default|hoo,   !- Name
  {648c0a62-440b-4dea-8500-c349fd9d8a80}, !- Schedule Type Limits Name
  {e2ffb513-825f-42e3-b03b-6fc23fa39f75}, !- Default Day Schedule Name
  {871360f5-0e7d-450d-aed5-d1e6624ce78a}, !- Summer Design Day Schedule Name
  {bda9989b-f906-4499-a6b4-106f88d2b7d7}; !- Winter Design Day Schedule Name

OS:Schedule:Day,
  {e2ffb513-825f-42e3-b03b-6fc23fa39f75}, !- Handle
  0600|2200|AssistedLiving|default|hoo Schedule Week Day, !- Name
  {648c0a62-440b-4dea-8500-c349fd9d8a80}, !- Schedule Type Limits Name
  ,                                       !- Interpolate to Timestep
  6,                                      !- Hour 1
  0,                                      !- Minute 1
  0,                                      !- Value Until Time 1
  22,                                     !- Hour 2
  0,                                      !- Minute 2
  1,                                      !- Value Until Time 2
  24,                                     !- Hour 3
  0,                                      !- Minute 3
  0;                                      !- Value Until Time 3

OS:Schedule:Day,
  {3e6c2240-6cd2-4de0-a920-e8ba748bb98b}, !- Handle
  Schedule Day 2,                         !- Name
  ,                                       !- Schedule Type Limits Name
  ,                                       !- Interpolate to Timestep
  24,                                     !- Hour 1
  0,                                      !- Minute 1
  0;                                      !- Value Until Time 1

OS:Schedule:Day,
  {bda9989b-f906-4499-a6b4-106f88d2b7d7}, !- Handle
  0600|2200|AssistedLiving|default|hoo Winter Design Day, !- Name
  {648c0a62-440b-4dea-8500-c349fd9d8a80}, !- Schedule Type Limits Name
  ,                                       !- Interpolate to Timestep
  24,                                     !- Hour 1
  0,                                      !- Minute 1
  0;                                      !- Value Until Time 1

OS:Schedule:Day,
  {386540d9-5c9b-47f4-9476-9603356a95b4}, !- Handle
  Schedule Day 3,                         !- Name
  ,                                       !- Schedule Type Limits Name
  ,                                       !- Interpolate to Timestep
  24,                                     !- Hour 1
  0,                                      !- Minute 1
  0;                                      !- Value Until Time 1

OS:Schedule:Day,
  {871360f5-0e7d-450d-aed5-d1e6624ce78a}, !- Handle
  0600|2200|AssistedLiving|default|hoo Summer Design Day, !- Name
  {648c0a62-440b-4dea-8500-c349fd9d8a80}, !- Schedule Type Limits Name
  ,                                       !- Interpolate to Timestep
  24,                                     !- Hour 1
  0,                                      !- Minute 1
  1;                                      !- Value Until Time 1

OS:DefaultScheduleSet,
  {0732a748-625e-4eac-bf72-d2b327af9e0b}, !- Handle
  Building Hours of Operation,            !- Name
  {8ea7074f-80a2-4307-a99d-0fc33e00d5d2}, !- Hours of Operation Schedule Name
  ,                                       !- Number of People Schedule Name
  ,                                       !- People Activity Level Schedule Name
  ,                                       !- Lighting Schedule Name
  ,                                       !- Electric Equipment Schedule Name
  ,                                       !- Gas Equipment Schedule Name
  ,                                       !- Hot Water Equipment Schedule Name
  ,                                       !- Infiltration Schedule Name
  ,                                       !- Steam Equipment Schedule Name
  ;                                       !- Other Equipment Schedule Name

OS:ScheduleTypeLimits,
  {648c0a62-440b-4dea-8500-c349fd9d8a80}, !- Handle
  OnOff,                                  !- Name
  0,                                      !- Lower Limit Value {BasedOnField A4}
  1,                                      !- Upper Limit Value {BasedOnField A4}
  Discrete,                               !- Numeric Type
  Availability;                           !- Unit Type

OS:Schedule:Ruleset,
  {47ee74ea-eb9c-4be8-b1b1-1e8fc7f15215}, !- Handle
  0600|2200|AssistedLiving|Kitchen|htg_setpoint, !- Name
  {f23f1edd-9c24-412c-9782-4908293c35e1}, !- Schedule Type Limits Name
  {d9ee1a06-6c4c-4d95-97cc-e478ab679e73}, !- Default Day Schedule Name
  {85cd24e8-db53-4ca2-81f0-e29a8554ab5d}, !- Summer Design Day Schedule Name
  {287e7d3f-507b-4025-b3c8-4af542ec0215}; !- Winter Design Day Schedule Name

OS:ScheduleTypeLimits,
  {f23f1edd-9c24-412c-9782-4908293c35e1}, !- Handle
  Thermostat Heating Setpoint Schedule Type Limits, !- Name
  0,                                      !- Lower Limit Value {BasedOnField A4}
  100,                                    !- Upper Limit Value {BasedOnField A4}
  Continuous,                             !- Numeric Type
  Temperature;                            !- Unit Type

OS:Schedule:Day,
  {d9ee1a06-6c4c-4d95-97cc-e478ab679e73}, !- Handle
  0600|2200|AssistedLiving|Kitchen|htg_setpoint |default, !- Name
  {f23f1edd-9c24-412c-9782-4908293c35e1}, !- Schedule Type Limits Name
  ,                                       !- Interpolate to Timestep
  24,                                     !- Hour 1
  0,                                      !- Minute 1
  19.0000000000001;                       !- Value Until Time 1

OS:Schedule:Day,
  {85cd24e8-db53-4ca2-81f0-e29a8554ab5d}, !- Handle
  0600|2200|AssistedLiving|Kitchen|htg_setpoint Summer Design Day, !- Name
  {f23f1edd-9c24-412c-9782-4908293c35e1}, !- Schedule Type Limits Name
  ,                                       !- Interpolate to Timestep
  24,                                     !- Hour 1
  0,                                      !- Minute 1
  19.0000000000001;                       !- Value Until Time 1

OS:Schedule:Day,
  {287e7d3f-507b-4025-b3c8-4af542ec0215}, !- Handle
  0600|2200|AssistedLiving|Kitchen|htg_setpoint Winter Design Day, !- Name
  {f23f1edd-9c24-412c-9782-4908293c35e1}, !- Schedule Type Limits Name
  ,                                       !- Interpolate to Timestep
  24,                                     !- Hour 1
  0,                                      !- Minute 1
  19.0000000000001;                       !- Value Until Time 1

OS:Schedule:Rule,
  {35921e8b-63a1-463f-8075-e5d210645e94}, !- Handle
  0600|2200|AssistedLiving|Kitchen|htg_setpoint |1/1-12/31|Sat/Sun Rule, !- Name
  {47ee74ea-eb9c-4be8-b1b1-1e8fc7f15215}, !- Schedule Ruleset Name
  0,                                      !- Rule Order
  {0c215b5c-b8d1-45a1-9054-7cbcb52b104b}, !- Day Schedule Name
  Yes,                                    !- Apply Sunday
  ,                                       !- Apply Monday
  ,                                       !- Apply Tuesday
  ,                                       !- Apply Wednesday
  ,                                       !- Apply Thursday
  ,                                       !- Apply Friday
  Yes,                                    !- Apply Saturday
  ,                                       !- Apply Holiday
  DateRange,                              !- Date Specification Type
  1,                                      !- Start Month
  1,                                      !- Start Day
  12,                                     !- End Month
  31;                                     !- End Day

OS:Schedule:Day,
  {0c215b5c-b8d1-45a1-9054-7cbcb52b104b}, !- Handle
  0600|2200|AssistedLiving|Kitchen|htg_setpoint |1/1-12/31|Sat/Sun, !- Name
  {f23f1edd-9c24-412c-9782-4908293c35e1}, !- Schedule Type Limits Name
  ,                                       !- Interpolate to Timestep
  24,                                     !- Hour 1
  0,                                      !- Minute 1
  15.6;                                   !- Value Until Time 1

OS:Schedule:Ruleset,
  {03d05c1b-3680-458a-ad75-a3d9f09ccf1c}, !- Handle
  0600|2200|AssistedLiving|Kitchen|elec_equip, !- Name
  {2566be89-f2ef-4a1f-9bd0-f7b7aeab1e14}, !- Schedule Type Limits Name
  {ee8fc1a9-10f3-447d-9d4d-845da6dcbc13}, !- Default Day Schedule Name
  {96798173-a97c-4526-84e4-c147b3c4e53a}, !- Summer Design Day Schedule Name
  {931e516b-ae94-4a3c-9a3e-5e5c47e4525d}; !- Winter Design Day Schedule Name

OS:ScheduleTypeLimits,
  {2566be89-f2ef-4a1f-9bd0-f7b7aeab1e14}, !- Handle
  Equipment Schedule Type Limits,         !- Name
  0,                                      !- Lower Limit Value {BasedOnField A4}
  1,                                      !- Upper Limit Value {BasedOnField A4}
  Continuous,                             !- Numeric Type
  Dimensionless;                          !- Unit Type

OS:Schedule:Day,
  {ee8fc1a9-10f3-447d-9d4d-845da6dcbc13}, !- Handle
  0600|2200|AssistedLiving|Kitchen|elec_equip |default, !- Name
  {2566be89-f2ef-4a1f-9bd0-f7b7aeab1e14}, !- Schedule Type Limits Name
  ,                                       !- Interpolate to Timestep
  7,                                      !- Hour 1
  0,                                      !- Minute 1
  0.02,                                   !- Value Until Time 1
  8,                                      !- Hour 2
  0,                                      !- Minute 2
  0.05,                                   !- Value Until Time 2
  9,                                      !- Hour 3
  0,                                      !- Minute 3
  0.1,                                    !- Value Until Time 3
  10,                                     !- Hour 4
  0,                                      !- Minute 4
  0.15,                                   !- Value Until Time 4
  11,                                     !- Hour 5
  0,                                      !- Minute 5
  0.2,                                    !- Value Until Time 5
  12,                                     !- Hour 6
  0,                                      !- Minute 6
  0.15,                                   !- Value Until Time 6
  13,                                     !- Hour 7
  0,                                      !- Minute 7
  0.25,                                   !- Value Until Time 7
  14,                                     !- Hour 8
  0,                                      !- Minute 8
  0.2,                                    !- Value Until Time 8
  15,                                     !- Hour 9
  0,                                      !- Minute 9
  0.15,                                   !- Value Until Time 9
  16,                                     !- Hour 10
  0,                                      !- Minute 10
  0.2,                                    !- Value Until Time 10
  19,                                     !- Hour 11
  0,                                      !- Minute 11
  0.3,                                    !- Value Until Time 11
  21,                                     !- Hour 12
  0,                                      !- Minute 12
  0.2,                                    !- Value Until Time 12
  22,                                     !- Hour 13
  0,                                      !- Minute 13
  0.15,                                   !- Value Until Time 13
  23,                                     !- Hour 14
  0,                                      !- Minute 14
  0.1,                                    !- Value Until Time 14
  24,                                     !- Hour 15
  0,                                      !- Minute 15
  0.05;                                   !- Value Until Time 15

OS:Schedule:Day,
  {96798173-a97c-4526-84e4-c147b3c4e53a}, !- Handle
  0600|2200|AssistedLiving|Kitchen|elec_equip Summer Design Day, !- Name
  {2566be89-f2ef-4a1f-9bd0-f7b7aeab1e14}, !- Schedule Type Limits Name
  ,                                       !- Interpolate to Timestep
  7,                                      !- Hour 1
  0,                                      !- Minute 1
  0.02,                                   !- Value Until Time 1
  8,                                      !- Hour 2
  0,                                      !- Minute 2
  0.05,                                   !- Value Until Time 2
  9,                                      !- Hour 3
  0,                                      !- Minute 3
  0.1,                                    !- Value Until Time 3
  10,                                     !- Hour 4
  0,                                      !- Minute 4
  0.15,                                   !- Value Until Time 4
  11,                                     !- Hour 5
  0,                                      !- Minute 5
  0.2,                                    !- Value Until Time 5
  12,                                     !- Hour 6
  0,                                      !- Minute 6
  0.15,                                   !- Value Until Time 6
  13,                                     !- Hour 7
  0,                                      !- Minute 7
  0.25,                                   !- Value Until Time 7
  14,                                     !- Hour 8
  0,                                      !- Minute 8
  0.2,                                    !- Value Until Time 8
  15,                                     !- Hour 9
  0,                                      !- Minute 9
  0.15,                                   !- Value Until Time 9
  16,                                     !- Hour 10
  0,                                      !- Minute 10
  0.2,                                    !- Value Until Time 10
  19,                                     !- Hour 11
  0,                                      !- Minute 11
  1,                                      !- Value Until Time 11
  21,                                     !- Hour 12
  0,                                      !- Minute 12
  0.2,                                    !- Value Until Time 12
  22,                                     !- Hour 13
  0,                                      !- Minute 13
  0.15,                                   !- Value Until Time 13
  23,                                     !- Hour 14
  0,                                      !- Minute 14
  0.1,                                    !- Value Until Time 14
  24,                                     !- Hour 15
  0,                                      !- Minute 15
  0.05;                                   !- Value Until Time 15

OS:Schedule:Day,
  {931e516b-ae94-4a3c-9a3e-5e5c47e4525d}, !- Handle
  0600|2200|AssistedLiving|Kitchen|elec_equip Winter Design Day, !- Name
  {2566be89-f2ef-4a1f-9bd0-f7b7aeab1e14}, !- Schedule Type Limits Name
  ,                                       !- Interpolate to Timestep
  24,                                     !- Hour 1
  0,                                      !- Minute 1
  0.02;                                   !- Value Until Time 1

OS:Schedule:Ruleset,
  {8c4a8d15-4f77-4cc6-b5c5-51689ae73665}, !- Handle
  0600|2200|AssistedLiving|default|rh,    !- Name
  {9e7d1a08-c63d-42c8-a229-f05917c6d7cb}, !- Schedule Type Limits Name
  {16623ef6-c178-4296-ac93-d2fc1f7f7cec}, !- Default Day Schedule Name
  {3eaca201-253a-4279-bfb4-f00b90c34a3d}, !- Summer Design Day Schedule Name
  {8643c754-abb8-41ec-b899-ecaa20879bc8}; !- Winter Design Day Schedule Name

OS:ScheduleTypeLimits,
  {9e7d1a08-c63d-42c8-a229-f05917c6d7cb}, !- Handle
  Dimensionless Schedule Type Limits,     !- Name
  ,                                       !- Lower Limit Value {BasedOnField A4}
  ,                                       !- Upper Limit Value {BasedOnField A4}
  Continuous,                             !- Numeric Type
  Dimensionless;                          !- Unit Type

OS:Schedule:Day,
  {16623ef6-c178-4296-ac93-d2fc1f7f7cec}, !- Handle
  0600|2200|AssistedLiving|default|rh |default, !- Name
  {9e7d1a08-c63d-42c8-a229-f05917c6d7cb}, !- Schedule Type Limits Name
  ,                                       !- Interpolate to Timestep
  24,                                     !- Hour 1
  0,                                      !- Minute 1
  50;                                     !- Value Until Time 1

OS:Schedule:Day,
  {3eaca201-253a-4279-bfb4-f00b90c34a3d}, !- Handle
  0600|2200|AssistedLiving|default|rh Summer Design Day, !- Name
  {9e7d1a08-c63d-42c8-a229-f05917c6d7cb}, !- Schedule Type Limits Name
  ,                                       !- Interpolate to Timestep
  24,                                     !- Hour 1
  0,                                      !- Minute 1
  50;                                     !- Value Until Time 1

OS:Schedule:Day,
  {8643c754-abb8-41ec-b899-ecaa20879bc8}, !- Handle
  0600|2200|AssistedLiving|default|rh Winter Design Day, !- Name
  {9e7d1a08-c63d-42c8-a229-f05917c6d7cb}, !- Schedule Type Limits Name
  ,                                       !- Interpolate to Timestep
  24,                                     !- Hour 1
  0,                                      !- Minute 1
  50;                                     !- Value Until Time 1

OS:Schedule:Ruleset,
  {a3030c25-3d16-4b2e-aeeb-a8a13038b9f1}, !- Handle
  0600|2200|AssistedLiving|default|activity, !- Name
  {d725f530-8796-4999-8e6c-02ca39c6c968}, !- Schedule Type Limits Name
  {3eca0fd1-35eb-4aa5-be4e-970f4e309f29}, !- Default Day Schedule Name
  {98320fcd-dc69-4066-a5e4-71a27ed72216}, !- Summer Design Day Schedule Name
  {1ce61f92-703c-4dde-9539-7a961240224c}; !- Winter Design Day Schedule Name

OS:ScheduleTypeLimits,
  {d725f530-8796-4999-8e6c-02ca39c6c968}, !- Handle
  People Activity Type Limits,            !- Name
  0,                                      !- Lower Limit Value {BasedOnField A4}
  ,                                       !- Upper Limit Value {BasedOnField A4}
  Continuous,                             !- Numeric Type
  ActivityLevel;                          !- Unit Type

OS:Schedule:Day,
  {3eca0fd1-35eb-4aa5-be4e-970f4e309f29}, !- Handle
  0600|2200|AssistedLiving|default|activity |default, !- Name
  {d725f530-8796-4999-8e6c-02ca39c6c968}, !- Schedule Type Limits Name
  ,                                       !- Interpolate to Timestep
  24,                                     !- Hour 1
  0,                                      !- Minute 1
  120;                                    !- Value Until Time 1

OS:Schedule:Day,
  {98320fcd-dc69-4066-a5e4-71a27ed72216}, !- Handle
  0600|2200|AssistedLiving|default|activity Summer Design Day, !- Name
  {d725f530-8796-4999-8e6c-02ca39c6c968}, !- Schedule Type Limits Name
  ,                                       !- Interpolate to Timestep
  24,                                     !- Hour 1
  0,                                      !- Minute 1
  120;                                    !- Value Until Time 1

OS:Schedule:Day,
  {1ce61f92-703c-4dde-9539-7a961240224c}, !- Handle
  0600|2200|AssistedLiving|default|activity Winter Design Day, !- Name
  {d725f530-8796-4999-8e6c-02ca39c6c968}, !- Schedule Type Limits Name
  ,                                       !- Interpolate to Timestep
  24,                                     !- Hour 1
  0,                                      !- Minute 1
  120;                                    !- Value Until Time 1

OS:Schedule:Ruleset,
  {afa7fccd-22b3-4323-afa1-f9c600c8e099}, !- Handle
  0600|2200|AssistedLiving|default|lighting, !- Name
  {81019428-c451-43ba-9802-038dde136830}, !- Schedule Type Limits Name
  {d7f9e746-664d-4b8d-8a59-590cd6386bc3}, !- Default Day Schedule Name
  {bc9b62b2-a467-41bf-8f25-e43a011136c4}, !- Summer Design Day Schedule Name
  {cb43a195-ee45-4318-bcb3-f928e2e47ca9}; !- Winter Design Day Schedule Name

OS:ScheduleTypeLimits,
  {81019428-c451-43ba-9802-038dde136830}, !- Handle
  Lights Schedule Type Limits,            !- Name
  0,                                      !- Lower Limit Value {BasedOnField A4}