
OS:Version,
  {7fe1a321-b56b-4620-ba07-1d6ca0a840a3}, !- Handle
  1.5.5;                                  !- Version Identifier

OS:ClimateZones,
  {135edfab-17e7-40db-a436-27d385a8cd6d}, !- Handle
  ,                                       !- Active Institution
  ,                                       !- Active Year
  ASHRAE,                                 !- Climate Zone Institution Name 1
  ANSI/ASHRAE Standard 169,               !- Climate Zone Document Name 1
  2006,                                   !- Climate Zone Document Year 1
  ,                                       !- Climate Zone Value 1
  CEC,                                    !- Climate Zone Institution Name 2
  California Climate Zone Descriptions,   !- Climate Zone Document Name 2
  1995,                                   !- Climate Zone Document Year 2
  ;                                       !- Climate Zone Value 2

OS:YearDescription,
  {513d8dda-86cb-442a-b01c-1f7f0e0ac70e}; !- Handle

OS:RadianceParameters,
  {270a96f1-3c86-4b75-a667-cdf22790e2c8}, !- Handle
  1,                                      !- Accumulated Rays per Record
  0,                                      !- Direct Threshold
  1,                                      !- Direct Certainty
  1,                                      !- Direct Jitter
  1,                                      !- Direct Pretest
  6,                                      !- Ambient Bounces VMX
  2,                                      !- Ambient Bounces DMX
  4050,                                   !- Ambient Divisions VMX
  512,                                    !- Ambient Divisions DMX
  256,                                    !- Ambient Supersamples
  0.001,                                  !- Limit Weight VMX
  0.001,                                  !- Limit Weight DMX
  500,                                    !- Klems Sampling Density
  146;                                    !- Sky Discretization Resolution

OS:SimulationControl,
  {2c487a4c-bac9-4ac5-b669-1e49d9da7c2b}, !- Handle
  ,                                       !- Do Zone Sizing Calculation
  ,                                       !- Do System Sizing Calculation
  ,                                       !- Do Plant Sizing Calculation
  No,                                     !- Run Simulation for Sizing Periods
  ,                                       !- Run Simulation for Weather File Run Periods
  0.04,                                   !- Loads Convergence Tolerance Value
  ,                                       !- Temperature Convergence Tolerance Value {deltaC}
  ,                                       !- Solar Distribution
  ,                                       !- Maximum Number of Warmup Days
  2;                                      !- Minimum Number of Warmup Days

OS:Sizing:Parameters,
  {dde5af6f-7923-4600-a28a-7556673a0266}, !- Handle
  1.25,                                   !- Heating Sizing Factor
  1.15;                                   !- Cooling Sizing Factor

OS:ProgramControl,
  {05027a99-f2b3-4aeb-afc6-1425fbb4371d}; !- Handle

OS:Timestep,
  {4ebc9f1e-4707-402e-9844-67eb1ffbd522}, !- Handle
  2;                                      !- Number of Timesteps per Hour

OS:OutputControl:ReportingTolerances,
  {65797aa2-06a9-45fe-b69d-bc6e060399d3}; !- Handle

OS:ConvergenceLimits,
  {9fc11aba-8822-4f3d-970c-46391ba4040d}; !- Handle

OS:ShadowCalculation,
  {ca758bea-4416-4626-9bba-3d8795c79bd6}, !- Handle
  7,                                      !- Calculation Frequency
  15000;                                  !- Maximum Figures in Shadow Overlap Calculations

OS:SurfaceConvectionAlgorithm:Inside,
  {aaabfc36-718a-4ab0-b622-f186ebb45230}, !- Handle
  TARP;                                   !- Algorithm

OS:SurfaceConvectionAlgorithm:Outside,
  {9a0a9f6f-4bbd-4b12-a121-9492a1fcd7d6}, !- Handle
  DOE-2;                                  !- Algorithm

OS:HeatBalanceAlgorithm,
  {9d93e563-e1e0-46d7-9e39-d1c8aceb7212}, !- Handle
  ConductionTransferFunction,             !- Algorithm
  200;                                    !- Surface Temperature Upper Limit {F}

OS:ZoneAirHeatBalanceAlgorithm,
  {8520d93e-310f-4696-9bcd-36228bfdd743}, !- Handle
  AnalyticalSolution;                     !- Algorithm

OS:ZoneAirContaminantBalance,
  {eb5fc3ae-fb22-4160-8fcb-3e3b22b000d3}; !- Handle

OS:ZoneCapacitanceMultiplier:ResearchSpecial,
  {4020ce4f-5a7a-4849-8028-8305d7b751b1}, !- Handle
  ,                                       !- Temperature Capacity Multiplier
  ,                                       !- Humidity Capacity Multiplier
  ;                                       !- Carbon Dioxide Capacity Multiplier

OS:RunPeriod,
  {28df894d-6af9-4fb8-8f56-df1753344aa3}, !- Handle
  Run Period 1,                           !- Name
  1,                                      !- Begin Month
  1,                                      !- Begin Day of Month
  12,                                     !- End Month
  31,                                     !- End Day of Month
  ,                                       !- Use Weather File Holidays and Special Days
  ,                                       !- Use Weather File Daylight Saving Period
  ,                                       !- Apply Weekend Holiday Rule
  ,                                       !- Use Weather File Rain Indicators
  ,                                       !- Use Weather File Snow Indicators
  ;                                       !- Number of Times Runperiod to be Repeated

OS:Building,
  {bf305633-c5a1-4881-9edf-ca5e1a8e1274}, !- Handle
  Building 1,                             !- Name
  ,                                       !- Building Sector Type
  ,                                       !- North Axis {deg}
  ,                                       !- Nominal Floor to Floor Height {m}
  ,                                       !- Space Type Name
  ,                                       !- Default Construction Set Name
  {fd180b6e-fae8-4c76-826c-7a815c707740}, !- Default Schedule Set Name
  ,                                       !- Standards Number of Stories
  ,                                       !- Standards Number of Above Ground Stories
  AssistedLiving;                         !- Standards Building Type

OS:LifeCycleCost:Parameters,
  {231cf8a0-f0e7-4251-a99f-11f0d464e661}, !- Handle
  FEMP,                                   !- Analysis Type
  ,                                       !- Discounting Convention
  ,                                       !- Inflation Approach
  ,                                       !- Real Discount Rate
  ,                                       !- Nominal Discount Rate
  ,                                       !- Inflation
  ,                                       !- Base Date Month
  ,                                       !- Base Date Year
  ,                                       !- Service Date Month
  ,                                       !- Service Date Year
  ,                                       !- Length of Study Period in Years
  ,                                       !- Tax Rate
  ,                                       !- Depreciation Method
  Yes;                                    !- Use NIST Fuel Escalation Rates

OS:Facility,
  {3ba8e45b-b833-44eb-a723-ea6c3946dc96}; !- Handle

OS:SpaceType,
  {392907db-cab8-42f0-8359-3866dc1e151f}, !- Handle
  AssistedLiving|BlendPat|DOE Ref 1980-2004|ASHRAE 169-2006-5A, !- Name
  {653f9b68-42ea-42d8-8cf0-413a975b7a40}, !- Default Construction Set Name
  ,                                       !- Default Schedule Set Name
  {d7124e91-24ed-4760-8017-9cf5dbdb6a59}, !- Group Rendering Name
  {9ebc9b26-7418-44a8-867c-f093c40e403f}, !- Design Specification Outdoor Air Object Name
  AssistedLiving,                         !- Standards Building Type
  BlendPat;                               !- Standards Space Type

OS:Rendering:Color,
  {d7124e91-24ed-4760-8017-9cf5dbdb6a59}, !- Handle
  Rendering Color 1,                      !- Name
  78,                                     !- Rendering Red Value
  167,                                    !- Rendering Green Value
  222;                                    !- Rendering Blue Value

OS:SpaceType,
  {01fa9148-d988-4a06-ab24-68d13b4d4081}, !- Handle
  AssistedLiving|BlendCom|DOE Ref 1980-2004|ASHRAE 169-2006-5A, !- Name
  {653f9b68-42ea-42d8-8cf0-413a975b7a40}, !- Default Construction Set Name
  ,                                       !- Default Schedule Set Name
  {86106e34-847e-4184-bb6a-591cf7543a41}, !- Group Rendering Name
  {a8c94629-4f54-4caf-b394-5a9565aa81d2}, !- Design Specification Outdoor Air Object Name
  AssistedLiving,                         !- Standards Building Type
  BlendCom;                               !- Standards Space Type

OS:Rendering:Color,
  {86106e34-847e-4184-bb6a-591cf7543a41}, !- Handle
  Rendering Color 2,                      !- Name
  31,                                     !- Rendering Red Value
  169,                                    !- Rendering Green Value
  34;                                     !- Rendering Blue Value

OS:SpaceType,
  {22eef23e-1527-438e-be40-30a94bff0c96}, !- Handle
  AssistedLiving|Kitchen|DOE Ref 1980-2004|ASHRAE 169-2006-5A, !- Name
  {653f9b68-42ea-42d8-8cf0-413a975b7a40}, !- Default Construction Set Name
  {44ba1832-58b3-474c-91d2-80d253fe9283}, !- Default Schedule Set Name
  {194837b2-1bff-48e1-b06e-75c9206f3ee4}, !- Group Rendering Name
  {a4426218-4691-42ac-8b01-57e24c70840c}, !- Design Specification Outdoor Air Object Name
  AssistedLiving,                         !- Standards Building Type
  Kitchen;                                !- Standards Space Type

OS:Rendering:Color,
  {194837b2-1bff-48e1-b06e-75c9206f3ee4}, !- Handle
  Rendering Color 3,                      !- Name
  78,                                     !- Rendering Red Value
  222,                                    !- Rendering Green Value
  133;                                    !- Rendering Blue Value

OS:Schedule:Ruleset,
  {003db67a-6b0e-40e6-81ff-732f190d9013}, !- Handle
  0600|2200|AssistedLiving|default|hoo,   !- Name
  {1d5819f4-7098-4d97-88cf-52bec17cb0f1}, !- Schedule Type Limits Name
  {bd67d1e5-01a4-4134-b504-680913da1030}, !- Default Day Schedule Name
  {39f50565-b777-4ec3-bc3a-5215a3bdc165}, !- Summer Design Day Schedule Name
  {7a302ea1-327b-4d98-8fd8-437ce69ca7e9}; !- Winter Design Day Schedule Name

OS:Schedule:Day,
  {bd67d1e5-01a4-4134-b504-680913da1030}, !- Handle
  0600|2200|AssistedLiving|default|hoo Schedule Week Day, !- Name
  {1d5819f4-7098-4d97-88cf-52bec17cb0f1}, !- Schedule Type Limits Name
  ,                                       !- Interpolate to Timestep
  6,                                      !- Hour 1
  0,                                      !- Minute 1
  0,                                      !- Value Until Time 1
  22,                                     !- Hour 2
  0,                                      !- Minute 2
  1,                                      !- Value Until Time 2
  24,                                     !- Hour 3
  0,                                      !- Minute 3
  0;                                      !- Value Until Time 3

OS:Schedule:Day,
  {e0ddab96-be1c-4f1a-9e73-96903f15c937}, !- Handle
  Schedule Day 2,                         !- Name
  ,                                       !- Schedule Type Limits Name
  ,                                       !- Interpolate to Timestep
  24,                                     !- Hour 1
  0,                                      !- Minute 1
  0;                                      !- Value Until Time 1

OS:Schedule:Day,
  {7a302ea1-327b-4d98-8fd8-437ce69ca7e9}, !- Handle
  0600|2200|AssistedLiving|default|hoo Winter Design Day, !- Name
  {1d5819f4-7098-4d97-88cf-52bec17cb0f1}, !- Schedule Type Limits Name
  ,                                       !- Interpolate to Timestep
  24,                                     !- Hour 1
  0,                                      !- Minute 1
  0;                                      !- Value Until Time 1

OS:Schedule:Day,
  {8f4889b7-ab40-47dd-b5fe-e7939b154dfd}, !- Handle
  Schedule Day 3,                         !- Name
  ,                                       !- Schedule Type Limits Name
  ,                                       !- Interpolate to Timestep
  24,                                     !- Hour 1
  0,                                      !- Minute 1
  0;                                      !- Value Until Time 1

OS:Schedule:Day,
  {39f50565-b777-4ec3-bc3a-5215a3bdc165}, !- Handle
  0600|2200|AssistedLiving|default|hoo Summer Design Day, !- Name
  {1d5819f4-7098-4d97-88cf-52bec17cb0f1}, !- Schedule Type Limits Name
  ,                                       !- Interpolate to Timestep
  24,                                     !- Hour 1
  0,                                      !- Minute 1
  1;                                      !- Value Until Time 1

OS:DefaultScheduleSet,
  {fd180b6e-fae8-4c76-826c-7a815c707740}, !- Handle
  Building Hours of Operation,            !- Name
  {003db67a-6b0e-40e6-81ff-732f190d9013}, !- Hours of Operation Schedule Name
  ,                                       !- Number of People Schedule Name
  ,                                       !- People Activity Level Schedule Name
  ,                                       !- Lighting Schedule Name
  ,                                       !- Electric Equipment Schedule Name
  ,                                       !- Gas Equipment Schedule Name
  ,                                       !- Hot Water Equipment Schedule Name
  ,                                       !- Infiltration Schedule Name
  ,                                       !- Steam Equipment Schedule Name
  ;                                       !- Other Equipment Schedule Name

OS:ScheduleTypeLimits,
  {1d5819f4-7098-4d97-88cf-52bec17cb0f1}, !- Handle
  OnOff,                                  !- Name
  0,                                      !- Lower Limit Value {BasedOnField A4}
  1,                                      !- Upper Limit Value {BasedOnField A4}
  Discrete,                               !- Numeric Type
  Availability;                           !- Unit Type

OS:Schedule:Ruleset,
  {73441f9d-6725-42d4-97dc-2e73530c760b}, !- Handle
  0600|2200|AssistedLiving|Kitchen|gas_equip, !- Name
  {ad354b55-8e38-474a-8684-9642e9ff9e77}, !- Schedule Type Limits Name
  {286b3e96-7fbf-4d9c-acdb-7524ef93dd1e}, !- Default Day Schedule Name
  {04df8561-4efb-48f4-8b4f-9f4b205f8ad2}, !- Summer Design Day Schedule Name
  {501947ba-dd3a-4f2c-be51-a7a1f9c67dfe}; !- Winter Design Day Schedule Name

OS:ScheduleTypeLimits,
  {ad354b55-8e38-474a-8684-9642e9ff9e77}, !- Handle
  Equipment Schedule Type Limits,         !- Name
  0,                                      !- Lower Limit Value {BasedOnField A4}
  1,                                      !- Upper Limit Value {BasedOnField A4}
  Continuous,                             !- Numeric Type
  Dimensionless;                          !- Unit Type

OS:Schedule:Day,
  {286b3e96-7fbf-4d9c-acdb-7524ef93dd1e}, !- Handle
  0600|2200|AssistedLiving|Kitchen|gas_equip |default, !- Name
  {ad354b55-8e38-474a-8684-9642e9ff9e77}, !- Schedule Type Limits Name
  ,                                       !- Interpolate to Timestep
  7,                                      !- Hour 1
  0,                                      !- Minute 1
  0.02,                                   !- Value Until Time 1
  8,                                      !- Hour 2
  0,                                      !- Minute 2
  0.05,                                   !- Value Until Time 2
  9,                                      !- Hour 3
  0,                                      !- Minute 3
  0.1,                                    !- Value Until Time 3
  10,                                     !- Hour 4
  0,                                      !- Minute 4
  0.15,                                   !- Value Until Time 4
  11,                                     !- Hour 5
  0,                                      !- Minute 5
  0.2,                                    !- Value Until Time 5
  12,                                     !- Hour 6
  0,                                      !- Minute 6
  0.15,                                   !- Value Until Time 6
  13,                                     !- Hour 7
  0,                                      !- Minute 7
  0.25,                                   !- Value Until Time 7
  14,                                     !- Hour 8
  0,                                      !- Minute 8
  0.2,                                    !- Value Until Time 8
  15,                                     !- Hour 9
  0,                                      !- Minute 9
  0.15,                                   !- Value Until Time 9
  16,                                     !- Hour 10
  0,                                      !- Minute 10
  0.2,                                    !- Value Until Time 10
  19,                                     !- Hour 11
  0,                                      !- Minute 11
  0.3,                                    !- Value Until Time 11
  21,                                     !- Hour 12
  0,                                      !- Minute 12
  0.2,                                    !- Value Until Time 12
  22,                                     !- Hour 13
  0,                                      !- Minute 13
  0.15,                                   !- Value Until Time 13
  23,                                     !- Hour 14
  0,                                      !- Minute 14
  0.1,                                    !- Value Until Time 14
  24,                                     !- Hour 15
  0,                                      !- Minute 15
  0.05;                                   !- Value Until Time 15

OS:Schedule:Day,
  {04df8561-4efb-48f4-8b4f-9f4b205f8ad2}, !- Handle
  0600|2200|AssistedLiving|Kitchen|gas_equip Summer Design Day, !- Name
  {ad354b55-8e38-474a-8684-9642e9ff9e77}, !- Schedule Type Limits Name
  ,                                       !- Interpolate to Timestep
  7,                                      !- Hour 1
  0,                                      !- Minute 1
  0.02,                                   !- Value Until Time 1
  8,                                      !- Hour 2
  0,                                      !- Minute 2
  0.05,                                   !- Value Until Time 2
  9,                                      !- Hour 3
  0,                                      !- Minute 3
  0.1,                                    !- Value Until Time 3
  10,                                     !- Hour 4
  0,                                      !- Minute 4
  0.15,                                   !- Value Until Time 4
  11,                                     !- Hour 5
  0,                                      !- Minute 5
  0.2,                                    !- Value Until Time 5
  12,                                     !- Hour 6
  0,                                      !- Minute 6
  0.15,                                   !- Value Until Time 6
  13,                                     !- Hour 7
  0,                                      !- Minute 7
  0.25,                                   !- Value Until Time 7
  14,                                     !- Hour 8
  0,                                      !- Minute 8
  0.2,                                    !- Value Until Time 8
  15,                                     !- Hour 9
  0,                                      !- Minute 9
  0.15,                                   !- Value Until Time 9
  16,                                     !- Hour 10
  0,                                      !- Minute 10
  0.2,                                    !- Value Until Time 10
  19,                                     !- Hour 11
  0,                                      !- Minute 11
  1,                                      !- Value Until Time 11
  21,                                     !- Hour 12
  0,                                      !- Minute 12
  0.2,                                    !- Value Until Time 12
  22,                                     !- Hour 13
  0,                                      !- Minute 13
  0.15,                                   !- Value Until Time 13
  23,                                     !- Hour 14
  0,                                      !- Minute 14
  0.1,                                    !- Value Until Time 14
  24,                                     !- Hour 15
  0,                                      !- Minute 15
  0.05;                                   !- Value Until Time 15

OS:Schedule:Day,
  {501947ba-dd3a-4f2c-be51-a7a1f9c67dfe}, !- Handle
  0600|2200|AssistedLiving|Kitchen|gas_equip Winter Design Day, !- Name
  {ad354b55-8e38-474a-8684-9642e9ff9e77}, !- Schedule Type Limits Name
  ,                                       !- Interpolate to Timestep
  24,                                     !- Hour 1
  0,                                      !- Minute 1
  0.02;                                   !- Value Until Time 1

OS:Schedule:Ruleset,
  {e4707b32-2c08-4f16-ae27-b73ec8bc2b7a}, !- Handle
  0600|2200|AssistedLiving|default|air_velocity, !- Name
  {79a29101-a6a7-49b0-92ee-880d17fa5074}, !- Schedule Type Limits Name
  {78d772a2-5a1d-4fd3-b3b5-c19cbfc3f30c}, !- Default Day Schedule Name
  {cc90dcbb-34b7-40da-8459-4882ac2cbcf0}, !- Summer Design Day Schedule Name
  {d6cbee07-5469-4b30-a044-f24f727a9add}; !- Winter Design Day Schedule Name

OS:ScheduleTypeLimits,
  {79a29101-a6a7-49b0-92ee-880d17fa5074}, !- Handle
  Dimensionless Schedule Type Limits,     !- Name
  ,                                       !- Lower Limit Value {BasedOnField A4}
  ,                                       !- Upper Limit Value {BasedOnField A4}
  Continuous,                             !- Numeric Type
  Dimensionless;                          !- Unit Type

OS:Schedule:Day,
  {78d772a2-5a1d-4fd3-b3b5-c19cbfc3f30c}, !- Handle
  0600|2200|AssistedLiving|default|air_velocity |default, !- Name
  {79a29101-a6a7-49b0-92ee-880d17fa5074}, !- Schedule Type Limits Name
  ,                                       !- Interpolate to Timestep
  24,                                     !- Hour 1
  0,                                      !- Minute 1
  0.200152;                               !- Value Until Time 1

OS:Schedule:Day,
  {cc90dcbb-34b7-40da-8459-4882ac2cbcf0}, !- Handle
  0600|2200|AssistedLiving|default|air_velocity Summer Design Day, !- Name
  {79a29101-a6a7-49b0-92ee-880d17fa5074}, !- Schedule Type Limits Name
  ,                                       !- Interpolate to Timestep
  24,                                     !- Hour 1
  0,                                      !- Minute 1
  0.200152;                               !- Value Until Time 1

OS:Schedule:Day,
  {d6cbee07-5469-4b30-a044-f24f727a9add}, !- Handle
  0600|2200|AssistedLiving|default|air_velocity Winter Design Day, !- Name
  {79a29101-a6a7-49b0-92ee-880d17fa5074}, !- Schedule Type Limits Name
  ,                                       !- Interpolate to Timestep
  24,                                     !- Hour 1
  0,                                      !- Minute 1
  0.200152;                               !- Value Until Time 1

OS:Schedule:Ruleset,
  {33ac1131-f1c9-4715-b2e7-c4913c351290}, !- Handle
  0600|2200|AssistedLiving|default|occ,   !- Name
  {380c7cdb-a01d-445b-ba6b-8052f1947590}, !- Schedule Type Limits Name
  {6142549f-0125-42f6-b12f-b4f238a0474a}, !- Default Day Schedule Name
  {00cb5c4d-c6af-4cc9-9da1-cf10acb8360c}, !- Summer Design Day Schedule Name
  {7d2cd4ac-9abd-4599-bd86-9d9a1c8b5173}; !- Winter Design Day Schedule Name

OS:ScheduleTypeLimits,
  {380c7cdb-a01d-445b-ba6b-8052f1947590}, !- Handle
  Occupancy Schedule Type Limits,         !- Name
  0,                                      !- Lower Limit Value {BasedOnField A4}
  1,                                      !- Upper Limit Value {BasedOnField A4}
  Continuous,                             !- Numeric Type
  Dimensionless;                          !- Unit Type

OS:Schedule:Day,
  {6142549f-0125-42f6-b12f-b4f238a0474a}, !- Handle
  0600|2200|AssistedLiving|default|occ |default, !- Name
  {380c7cdb-a01d-445b-ba6b-8052f1947590}, !- Schedule Type Limits Name
  ,                                       !- Interpolate to Timestep
  6,                                      !- Hour 1
  0,                                      !- Minute 1
  0.05,                                   !- Value Until Time 1
  8,                                      !- Hour 2
  0,                                      !- Minute 2
  0.2,                                    !- Value Until Time 2
  9,                                      !- Hour 3
  0,                                      !- Minute 3
  0.5,                                    !- Value Until Time 3
  18,                                     !- Hour 4
  0,                                      !- Minute 4
  0.9,                                    !- Value Until Time 4
  20,                                     !- Hour 5
  0,                                      !- Minute 5
  0.5,                                    !- Value Until Time 5
  22,                                     !- Hour 6
  0,                                      !- Minute 6
  0.2,                                    !- Value Until Time 6
  24,                                     !- Hour 7
  0,                                      !- Minute 7
  0.05;                                   !- Value Until Time 7

OS:Schedule:Day,
  {00cb5c4d-c6af-4cc9-9da1-cf10acb8360c}, !- Handle
  0600|2200|AssistedLiving|default|occ Summer Design Day, !- Name
  {380c7cdb-a01d-445b-ba6b-8052f1947590}, !- Schedule Type Limits Name
  ,                                       !- Interpolate to Timestep
  6,                                      !- Hour 1
  0,                                      !- Minute 1
  0.05,                                   !- Value Until Time 1
  8,                                      !- Hour 2
  0,                                      !- Minute 2
  0.2,                                    !- Value Until Time 2
  20,                                     !- Hour 3
  0,                                      !- Minute 3
  1,                                      !- Value Until Time 3
  22,                                     !- Hour 4
  0,                                      !- Minute 4
  0.2,                                    !- Value Until Time 4
  24,                                     !- Hour 5
  0,                                      !- Minute 5
  0.05;                                   !- Value Until Time 5

OS:Schedule:Day,
  {7d2cd4ac-9abd-4599-bd86-9d9a1c8b5173}, !- Handle
  0600|2200|AssistedLiving|default|occ Winter Design Day, !- Name
  {380c7cdb-a01d-445b-ba6b-8052f1947590}, !- Schedule Type Limits Name
  ,                                       !- Interpolate to Timestep
  24,                                     !- Hour 1
  0,                                      !- Minute 1
  0;                                      !- Value Until Time 1

OS:Schedule:Rule,
  {7a9c875b-ec68-4b05-a8d0-3e493bc14b33}, !- Handle
  0600|2200|AssistedLiving|default|occ |1/1-12/31|Sat Rule, !- Name
  {33ac1131-f1c9-4715-b2e7-c4913c351290}, !- Schedule Ruleset Name
  0,                                      !- Rule Order
  {b503168b-49f1-491b-83b3-eff8cbe627eb}, !- Day Schedule Name
  ,                                       !- Apply Sunday
  ,                                       !- Apply Monday
  ,                                       !- Apply Tuesday
  ,                                       !- Apply Wednesday
  ,                                       !- Apply Thursday
  ,                                       !- Apply Friday
  Yes,                                    !- Apply Saturday
  ,                                       !- Apply Holiday
  DateRange,                              !- Date Specification Type
  1,                                      !- Start Month
  1,                                      !- Start Day
  12,                                     !- End Month
  31;                                     !- End Day

OS:Schedule:Day,
  {b503168b-49f1-491b-83b3-eff8cbe627eb}, !- Handle
  0600|2200|AssistedLiving|default|occ |1/1-12/31|Sat, !- Name
  {380c7cdb-a01d-445b-ba6b-8052f1947590}, !- Schedule Type Limits Name
  ,                                       !- Interpolate to Timestep
  9,                                      !- Hour 1
  0,                                      !- Minute 1
  0.05,                                   !- Value Until Time 1
  11,                                     !- Hour 2
  0,                                      !- Minute 2
  0.2,                                    !- Value Until Time 2
  15,                                     !- Hour 3
  0,                                      !- Minute 3
  0.3,                                    !- Value Until Time 3
  20,                                     !- Hour 4
  0,                                      !- Minute 4
  0.2,                                    !- Value Until Time 4
  24,                                     !- Hour 5
  0,                                      !- Minute 5
  0.05;                                   !- Value Until Time 5

OS:Schedule:Rule,
  {81477e18-8979-4461-a22c-4949017d9883}, !- Handle
  0600|2200|AssistedLiving|default|occ |1/1-12/31|Sun Rule, !- Name
  {33ac1131-f1c9-4715-b2e7-c4913c351290}, !- Schedule Ruleset Name
  1,                                      !- Rule Order
  {73c7fb2c-08ef-498a-8d35-0b0c802c385f}, !- Day Schedule Name
  Yes,                                    !- Apply Sunday
  ,                                       !- Apply Monday
  ,                                       !- Apply Tuesday