
OS:Version,
  {c16de89d-6d49-4a0a-bbe1-4850654c24a3}, !- Handle
  1.5.5;                                  !- Version Identifier

OS:ClimateZones,
  {135edfab-17e7-40db-a436-27d385a8cd6d}, !- Handle
  ,                                       !- Active Institution
  ,                                       !- Active Year
  ASHRAE,                                 !- Climate Zone Institution Name 1
  ANSI/ASHRAE Standard 169,               !- Climate Zone Document Name 1
  2006,                                   !- Climate Zone Document Year 1
  ,                                       !- Climate Zone Value 1
  CEC,                                    !- Climate Zone Institution Name 2
  California Climate Zone Descriptions,   !- Climate Zone Document Name 2
  1995,                                   !- Climate Zone Document Year 2
  ;                                       !- Climate Zone Value 2

OS:YearDescription,
  {513d8dda-86cb-442a-b01c-1f7f0e0ac70e}; !- Handle

OS:RadianceParameters,
  {270a96f1-3c86-4b75-a667-cdf22790e2c8}, !- Handle
  1,                                      !- Accumulated Rays per Record
  0,                                      !- Direct Threshold
  1,                                      !- Direct Certainty
  1,                                      !- Direct Jitter
  1,                                      !- Direct Pretest
  6,                                      !- Ambient Bounces VMX
  2,                                      !- Ambient Bounces DMX
  4050,                                   !- Ambient Divisions VMX
  512,                                    !- Ambient Divisions DMX
  256,                                    !- Ambient Supersamples
  0.001,                                  !- Limit Weight VMX
  0.001,                                  !- Limit Weight DMX
  500,                                    !- Klems Sampling Density
  146;                                    !- Sky Discretization Resolution

OS:SimulationControl,
  {2c487a4c-bac9-4ac5-b669-1e49d9da7c2b}, !- Handle
  ,                                       !- Do Zone Sizing Calculation
  ,                                       !- Do System Sizing Calculation
  ,                                       !- Do Plant Sizing Calculation
  No,                                     !- Run Simulation for Sizing Periods
  ,                                       !- Run Simulation for Weather File Run Periods
  0.04,                                   !- Loads Convergence Tolerance Value
  ,                                       !- Temperature Convergence Tolerance Value {deltaC}
  ,                                       !- Solar Distribution
  ,                                       !- Maximum Number of Warmup Days
  2;                                      !- Minimum Number of Warmup Days

OS:Sizing:Parameters,
  {dde5af6f-7923-4600-a28a-7556673a0266}, !- Handle
  1.25,                                   !- Heating Sizing Factor
  1.15;                                   !- Cooling Sizing Factor

OS:ProgramControl,
  {05027a99-f2b3-4aeb-afc6-1425fbb4371d}; !- Handle

OS:Timestep,
  {4ebc9f1e-4707-402e-9844-67eb1ffbd522}, !- Handle
  2;                                      !- Number of Timesteps per Hour

OS:OutputControl:ReportingTolerances,
  {65797aa2-06a9-45fe-b69d-bc6e060399d3}; !- Handle

OS:ConvergenceLimits,
  {9fc11aba-8822-4f3d-970c-46391ba4040d}; !- Handle

OS:ShadowCalculation,
  {ca758bea-4416-4626-9bba-3d8795c79bd6}, !- Handle
  7,                                      !- Calculation Frequency
  15000;                                  !- Maximum Figures in Shadow Overlap Calculations

OS:SurfaceConvectionAlgorithm:Inside,
  {aaabfc36-718a-4ab0-b622-f186ebb45230}, !- Handle
  TARP;                                   !- Algorithm

OS:SurfaceConvectionAlgorithm:Outside,
  {9a0a9f6f-4bbd-4b12-a121-9492a1fcd7d6}, !- Handle
  DOE-2;                                  !- Algorithm

OS:HeatBalanceAlgorithm,
  {9d93e563-e1e0-46d7-9e39-d1c8aceb7212}, !- Handle
  ConductionTransferFunction,             !- Algorithm
  200;                                    !- Surface Temperature Upper Limit {F}

OS:ZoneAirHeatBalanceAlgorithm,
  {8520d93e-310f-4696-9bcd-36228bfdd743}, !- Handle
  AnalyticalSolution;                     !- Algorithm

OS:ZoneAirContaminantBalance,
  {eb5fc3ae-fb22-4160-8fcb-3e3b22b000d3}; !- Handle

OS:ZoneCapacitanceMultiplier:ResearchSpecial,
  {4020ce4f-5a7a-4849-8028-8305d7b751b1}, !- Handle
  ,                                       !- Temperature Capacity Multiplier
  ,                                       !- Humidity Capacity Multiplier
  ;                                       !- Carbon Dioxide Capacity Multiplier

OS:RunPeriod,
  {28df894d-6af9-4fb8-8f56-df1753344aa3}, !- Handle
  Run Period 1,                           !- Name
  1,                                      !- Begin Month
  1,                                      !- Begin Day of Month
  12,                                     !- End Month
  31,                                     !- End Day of Month
  ,                                       !- Use Weather File Holidays and Special Days
  ,                                       !- Use Weather File Daylight Saving Period
  ,                                       !- Apply Weekend Holiday Rule
  ,                                       !- Use Weather File Rain Indicators
  ,                                       !- Use Weather File Snow Indicators
  ;                                       !- Number of Times Runperiod to be Repeated

OS:Building,
  {bf305633-c5a1-4881-9edf-ca5e1a8e1274}, !- Handle
  Building 1,                             !- Name
  ,                                       !- Building Sector Type
  ,                                       !- North Axis {deg}
  ,                                       !- Nominal Floor to Floor Height {m}
  ,                                       !- Space Type Name
  ,                                       !- Default Construction Set Name
  {35a0aee1-9ff4-4111-adb7-f02afd8bc71c}, !- Default Schedule Set Name
  ,                                       !- Standards Number of Stories
  ,                                       !- Standards Number of Above Ground Stories
  AssistedLiving;                         !- Standards Building Type

OS:LifeCycleCost:Parameters,
  {231cf8a0-f0e7-4251-a99f-11f0d464e661}, !- Handle
  FEMP,                                   !- Analysis Type
  ,                                       !- Discounting Convention
  ,                                       !- Inflation Approach
  ,                                       !- Real Discount Rate
  ,                                       !- Nominal Discount Rate
  ,                                       !- Inflation
  ,                                       !- Base Date Month
  ,                                       !- Base Date Year
  ,                                       !- Service Date Month
  ,                                       !- Service Date Year
  ,                                       !- Length of Study Period in Years
  ,                                       !- Tax Rate
  ,                                       !- Depreciation Method
  Yes;                                    !- Use NIST Fuel Escalation Rates

OS:Facility,
  {3ba8e45b-b833-44eb-a723-ea6c3946dc96}; !- Handle

OS:SpaceType,
  {54a13108-1d74-448a-b0cd-f670ff46a230}, !- Handle
  AssistedLiving|BlendPat|DOE Ref 2004|ASHRAE 169-2006-5A, !- Name
  {1ca2ccff-7db2-435e-bada-db4bf9b66ff4}, !- Default Construction Set Name
  ,                                       !- Default Schedule Set Name
  {8fcc6126-b70b-4cee-8efe-8df636acd75a}, !- Group Rendering Name
  {036c6bc8-c28d-4dd4-b5e9-d1db36c6fd0e}, !- Design Specification Outdoor Air Object Name
  AssistedLiving,                         !- Standards Building Type
  BlendPat;                               !- Standards Space Type

OS:Rendering:Color,
  {8fcc6126-b70b-4cee-8efe-8df636acd75a}, !- Handle
  Rendering Color 1,                      !- Name
  78,                                     !- Rendering Red Value
  167,                                    !- Rendering Green Value
  222;                                    !- Rendering Blue Value

OS:SpaceType,
  {cb61ee00-9f42-48b8-bada-81ebf603cdc3}, !- Handle
  AssistedLiving|BlendCom|DOE Ref 2004|ASHRAE 169-2006-5A, !- Name
  {1ca2ccff-7db2-435e-bada-db4bf9b66ff4}, !- Default Construction Set Name
  ,                                       !- Default Schedule Set Name
  {2fb456b1-8058-42a5-862b-5a755ccc21d1}, !- Group Rendering Name
  {8f09d3fe-4fa1-4e78-ac48-b7a05e5e5e3a}, !- Design Specification Outdoor Air Object Name
  AssistedLiving,                         !- Standards Building Type
  BlendCom;                               !- Standards Space Type

OS:Rendering:Color,
  {2fb456b1-8058-42a5-862b-5a755ccc21d1}, !- Handle
  Rendering Color 2,                      !- Name
  31,                                     !- Rendering Red Value
  169,                                    !- Rendering Green Value
  34;                                     !- Rendering Blue Value

OS:SpaceType,
  {2a83a209-9536-40d3-bc0b-e90bd825b4b5}, !- Handle
  AssistedLiving|Kitchen|DOE Ref 2004|ASHRAE 169-2006-5A, !- Name
  {1ca2ccff-7db2-435e-bada-db4bf9b66ff4}, !- Default Construction Set Name
  {6aba7c6d-a46f-4aa1-b4c6-4afcac0a52f7}, !- Default Schedule Set Name
  {74dd3a21-f0de-43a2-9bb7-43ea0d284f44}, !- Group Rendering Name
  {6413a09b-733d-4a22-a087-daecda811185}, !- Design Specification Outdoor Air Object Name
  AssistedLiving,                         !- Standards Building Type
  Kitchen;                                !- Standards Space Type

OS:Rendering:Color,
  {74dd3a21-f0de-43a2-9bb7-43ea0d284f44}, !- Handle
  Rendering Color 3,                      !- Name
  78,                                     !- Rendering Red Value
  222,                                    !- Rendering Green Value
  133;                                    !- Rendering Blue Value

OS:Schedule:Ruleset,
  {af6efe60-85cc-47af-a75e-65f075a6de05}, !- Handle
  0600|2200|AssistedLiving|default|hoo,   !- Name
  {10703b04-3849-4fe3-ae43-ce9d10492375}, !- Schedule Type Limits Name
  {bf0dd47f-4b23-4910-a2a0-ad98c9348674}, !- Default Day Schedule Name
  {c8bf5ade-1c73-46a5-8c86-22b92a749c61}, !- Summer Design Day Schedule Name
  {34c5117a-77cc-430e-81dc-77ebbb2c953a}; !- Winter Design Day Schedule Name

OS:Schedule:Day,
  {bf0dd47f-4b23-4910-a2a0-ad98c9348674}, !- Handle
  0600|2200|AssistedLiving|default|hoo Schedule Week Day, !- Name
  {10703b04-3849-4fe3-ae43-ce9d10492375}, !- Schedule Type Limits Name
  ,                                       !- Interpolate to Timestep
  6,                                      !- Hour 1
  0,                                      !- Minute 1
  0,                                      !- Value Until Time 1
  22,                                     !- Hour 2
  0,                                      !- Minute 2
  1,                                      !- Value Until Time 2
  24,                                     !- Hour 3
  0,                                      !- Minute 3
  0;                                      !- Value Until Time 3

OS:Schedule:Day,
  {81d5a404-a7c0-43db-961f-f1be17876ca8}, !- Handle
  Schedule Day 2,                         !- Name
  ,                                       !- Schedule Type Limits Name
  ,                                       !- Interpolate to Timestep
  24,                                     !- Hour 1
  0,                                      !- Minute 1
  0;                                      !- Value Until Time 1

OS:Schedule:Day,
  {34c5117a-77cc-430e-81dc-77ebbb2c953a}, !- Handle
  0600|2200|AssistedLiving|default|hoo Winter Design Day, !- Name
  {10703b04-3849-4fe3-ae43-ce9d10492375}, !- Schedule Type Limits Name
  ,                                       !- Interpolate to Timestep
  24,                                     !- Hour 1
  0,                                      !- Minute 1
  0;                                      !- Value Until Time 1

OS:Schedule:Day,
  {72402f8f-f502-4e14-9f31-38e57d35bdd6}, !- Handle
  Schedule Day 3,                         !- Name
  ,                                       !- Schedule Type Limits Name
  ,                                       !- Interpolate to Timestep
  24,                                     !- Hour 1
  0,                                      !- Minute 1
  0;                                      !- Value Until Time 1

OS:Schedule:Day,
  {c8bf5ade-1c73-46a5-8c86-22b92a749c61}, !- Handle
  0600|2200|AssistedLiving|default|hoo Summer Design Day, !- Name
  {10703b04-3849-4fe3-ae43-ce9d10492375}, !- Schedule Type Limits Name
  ,                                       !- Interpolate to Timestep
  24,                                     !- Hour 1
  0,                                      !- Minute 1
  1;                                      !- Value Until Time 1

OS:DefaultScheduleSet,
  {35a0aee1-9ff4-4111-adb7-f02afd8bc71c}, !- Handle
  Building Hours of Operation,            !- Name
  {af6efe60-85cc-47af-a75e-65f075a6de05}, !- Hours of Operation Schedule Name
  ,                                       !- Number of People Schedule Name
  ,                                       !- People Activity Level Schedule Name
  ,                                       !- Lighting Schedule Name
  ,                                       !- Electric Equipment Schedule Name
  ,                                       !- Gas Equipment Schedule Name
  ,                                       !- Hot Water Equipment Schedule Name
  ,                                       !- Infiltration Schedule Name
  ,                                       !- Steam Equipment Schedule Name
  ;                                       !- Other Equipment Schedule Name

OS:ScheduleTypeLimits,
  {10703b04-3849-4fe3-ae43-ce9d10492375}, !- Handle
  OnOff,                                  !- Name
  0,                                      !- Lower Limit Value {BasedOnField A4}
  1,                                      !- Upper Limit Value {BasedOnField A4}
  Discrete,                               !- Numeric Type
  Availability;                           !- Unit Type

OS:Schedule:Ruleset,
  {0cdd53c7-52d0-49e2-9fca-e99951c54c4b}, !- Handle
  0600|2200|AssistedLiving|Kitchen|gas_equip, !- Name
  {35eee4f6-f4fd-4343-8ff0-f407515b1f85}, !- Schedule Type Limits Name
  {e3518a58-1476-44cb-b844-68f22d6db17c}, !- Default Day Schedule Name
  {375177d2-d16e-44a8-83d4-fe9ec47f0a75}, !- Summer Design Day Schedule Name
  {7ad6d4e1-e82d-46be-8eab-ff1a5415fa10}; !- Winter Design Day Schedule Name

OS:ScheduleTypeLimits,
  {35eee4f6-f4fd-4343-8ff0-f407515b1f85}, !- Handle
  Equipment Schedule Type Limits,         !- Name
  0,                                      !- Lower Limit Value {BasedOnField A4}
  1,                                      !- Upper Limit Value {BasedOnField A4}
  Continuous,                             !- Numeric Type
  Dimensionless;                          !- Unit Type

OS:Schedule:Day,
  {e3518a58-1476-44cb-b844-68f22d6db17c}, !- Handle
  0600|2200|AssistedLiving|Kitchen|gas_equip |default, !- Name
  {35eee4f6-f4fd-4343-8ff0-f407515b1f85}, !- Schedule Type Limits Name
  ,                                       !- Interpolate to Timestep
  7,                                      !- Hour 1
  0,                                      !- Minute 1
  0.02,                                   !- Value Until Time 1
  8,                                      !- Hour 2
  0,                                      !- Minute 2
  0.05,                                   !- Value Until Time 2
  9,                                      !- Hour 3
  0,                                      !- Minute 3
  0.1,                                    !- Value Until Time 3
  10,                                     !- Hour 4
  0,                                      !- Minute 4
  0.15,                                   !- Value Until Time 4
  11,                                     !- Hour 5
  0,                                      !- Minute 5
  0.2,                                    !- Value Until Time 5
  12,                                     !- Hour 6
  0,                                      !- Minute 6
  0.15,                                   !- Value Until Time 6
  13,                                     !- Hour 7
  0,                                      !- Minute 7
  0.25,                                   !- Value Until Time 7
  14,                                     !- Hour 8
  0,                                      !- Minute 8
  0.2,                                    !- Value Until Time 8
  15,                                     !- Hour 9
  0,                                      !- Minute 9
  0.15,                                   !- Value Until Time 9
  16,                                     !- Hour 10
  0,                                      !- Minute 10
  0.2,                                    !- Value Until Time 10
  19,                                     !- Hour 11
  0,                                      !- Minute 11
  0.3,                                    !- Value Until Time 11
  21,                                     !- Hour 12
  0,                                      !- Minute 12
  0.2,                                    !- Value Until Time 12
  22,                                     !- Hour 13
  0,                                      !- Minute 13
  0.15,                                   !- Value Until Time 13
  23,                                     !- Hour 14
  0,                                      !- Minute 14
  0.1,                                    !- Value Until Time 14
  24,                                     !- Hour 15
  0,                                      !- Minute 15
  0.05;                                   !- Value Until Time 15

OS:Schedule:Day,
  {375177d2-d16e-44a8-83d4-fe9ec47f0a75}, !- Handle
  0600|2200|AssistedLiving|Kitchen|gas_equip Summer Design Day, !- Name
  {35eee4f6-f4fd-4343-8ff0-f407515b1f85}, !- Schedule Type Limits Name
  ,                                       !- Interpolate to Timestep
  7,                                      !- Hour 1
  0,                                      !- Minute 1
  0.02,                                   !- Value Until Time 1
  8,                                      !- Hour 2
  0,                                      !- Minute 2
  0.05,                                   !- Value Until Time 2
  9,                                      !- Hour 3
  0,                                      !- Minute 3
  0.1,                                    !- Value Until Time 3
  10,                                     !- Hour 4
  0,                                      !- Minute 4
  0.15,                                   !- Value Until Time 4
  11,                                     !- Hour 5
  0,                                      !- Minute 5
  0.2,                                    !- Value Until Time 5
  12,                                     !- Hour 6
  0,                                      !- Minute 6
  0.15,                                   !- Value Until Time 6
  13,                                     !- Hour 7
  0,                                      !- Minute 7
  0.25,                                   !- Value Until Time 7
  14,                                     !- Hour 8
  0,                                      !- Minute 8
  0.2,                                    !- Value Until Time 8
  15,                                     !- Hour 9
  0,                                      !- Minute 9
  0.15,                                   !- Value Until Time 9
  16,                                     !- Hour 10
  0,                                      !- Minute 10
  0.2,                                    !- Value Until Time 10
  19,                                     !- Hour 11
  0,                                      !- Minute 11
  1,                                      !- Value Until Time 11
  21,                                     !- Hour 12
  0,                                      !- Minute 12
  0.2,                                    !- Value Until Time 12
  22,                                     !- Hour 13
  0,                                      !- Minute 13
  0.15,                                   !- Value Until Time 13
  23,                                     !- Hour 14
  0,                                      !- Minute 14
  0.1,                                    !- Value Until Time 14
  24,                                     !- Hour 15
  0,                                      !- Minute 15
  0.05;                                   !- Value Until Time 15

OS:Schedule:Day,
  {7ad6d4e1-e82d-46be-8eab-ff1a5415fa10}, !- Handle
  0600|2200|AssistedLiving|Kitchen|gas_equip Winter Design Day, !- Name
  {35eee4f6-f4fd-4343-8ff0-f407515b1f85}, !- Schedule Type Limits Name
  ,                                       !- Interpolate to Timestep
  24,                                     !- Hour 1
  0,                                      !- Minute 1
  0.02;                                   !- Value Until Time 1

OS:Schedule:Ruleset,
  {a87787b4-0473-4ab7-9c63-c4861b22625d}, !- Handle
  0600|2200|AssistedLiving|default|air_velocity, !- Name
  {69028d1d-9a72-4d8f-a043-47a2e128e390}, !- Schedule Type Limits Name
  {718998b5-269a-44cd-a468-12f5d8ef8bbf}, !- Default Day Schedule Name
  {4946ae52-0cd6-4c21-a92a-f0ab4172c31e}, !- Summer Design Day Schedule Name
  {abde71ac-7aa9-4033-b436-4e655607d502}; !- Winter Design Day Schedule Name

OS:ScheduleTypeLimits,
  {69028d1d-9a72-4d8f-a043-47a2e128e390}, !- Handle
  Dimensionless Schedule Type Limits,     !- Name
  ,                                       !- Lower Limit Value {BasedOnField A4}
  ,                                       !- Upper Limit Value {BasedOnField A4}
  Continuous,                             !- Numeric Type
  Dimensionless;                          !- Unit Type

OS:Schedule:Day,
  {718998b5-269a-44cd-a468-12f5d8ef8bbf}, !- Handle
  0600|2200|AssistedLiving|default|air_velocity |default, !- Name
  {69028d1d-9a72-4d8f-a043-47a2e128e390}, !- Schedule Type Limits Name
  ,                                       !- Interpolate to Timestep
  24,                                     !- Hour 1
  0,                                      !- Minute 1
  0.200152;                               !- Value Until Time 1

OS:Schedule:Day,
  {4946ae52-0cd6-4c21-a92a-f0ab4172c31e}, !- Handle
  0600|2200|AssistedLiving|default|air_velocity Summer Design Day, !- Name
  {69028d1d-9a72-4d8f-a043-47a2e128e390}, !- Schedule Type Limits Name
  ,                                       !- Interpolate to Timestep
  24,                                     !- Hour 1
  0,                                      !- Minute 1
  0.200152;                               !- Value Until Time 1

OS:Schedule:Day,
  {abde71ac-7aa9-4033-b436-4e655607d502}, !- Handle
  0600|2200|AssistedLiving|default|air_velocity Winter Design Day, !- Name
  {69028d1d-9a72-4d8f-a043-47a2e128e390}, !- Schedule Type Limits Name
  ,                                       !- Interpolate to Timestep
  24,                                     !- Hour 1
  0,                                      !- Minute 1
  0.200152;                               !- Value Until Time 1

OS:Schedule:Ruleset,
  {7f025d76-845f-4e36-9f44-29212ff2b0a6}, !- Handle
  0600|2200|AssistedLiving|default|occ,   !- Name
  {b6fa8695-4984-4aa7-a7b3-17dc7c7342c4}, !- Schedule Type Limits Name
  {74435adc-e0a3-4f66-88c4-77753a9bf5ef}, !- Default Day Schedule Name
  {77a858fd-dda2-4fe1-ad4b-29a2c5b2fa11}, !- Summer Design Day Schedule Name
  {3a6a84ae-729b-4bb9-a6f1-182e8534fc41}; !- Winter Design Day Schedule Name

OS:ScheduleTypeLimits,
  {b6fa8695-4984-4aa7-a7b3-17dc7c7342c4}, !- Handle
  Occupancy Schedule Type Limits,         !- Name
  0,                                      !- Lower Limit Value {BasedOnField A4}
  1,                                      !- Upper Limit Value {BasedOnField A4}
  Continuous,                             !- Numeric Type
  Dimensionless;                          !- Unit Type

OS:Schedule:Day,
  {74435adc-e0a3-4f66-88c4-77753a9bf5ef}, !- Handle
  0600|2200|AssistedLiving|default|occ |default, !- Name
  {b6fa8695-4984-4aa7-a7b3-17dc7c7342c4}, !- Schedule Type Limits Name
  ,                                       !- Interpolate to Timestep
  6,                                      !- Hour 1
  0,                                      !- Minute 1
  0.05,                                   !- Value Until Time 1
  8,                                      !- Hour 2
  0,                                      !- Minute 2
  0.2,                                    !- Value Until Time 2
  9,                                      !- Hour 3
  0,                                      !- Minute 3
  0.5,                                    !- Value Until Time 3
  18,                                     !- Hour 4
  0,                                      !- Minute 4
  0.9,                                    !- Value Until Time 4
  20,                                     !- Hour 5
  0,                                      !- Minute 5
  0.5,                                    !- Value Until Time 5
  22,                                     !- Hour 6
  0,                                      !- Minute 6
  0.2,                                    !- Value Until Time 6
  24,                                     !- Hour 7
  0,                                      !- Minute 7
  0.05;                                   !- Value Until Time 7

OS:Schedule:Day,
  {77a858fd-dda2-4fe1-ad4b-29a2c5b2fa11}, !- Handle
  0600|2200|AssistedLiving|default|occ Summer Design Day, !- Name
  {b6fa8695-4984-4aa7-a7b3-17dc7c7342c4}, !- Schedule Type Limits Name
  ,                                       !- Interpolate to Timestep
  6,                                      !- Hour 1
  0,                                      !- Minute 1
  0.05,                                   !- Value Until Time 1
  8,                                      !- Hour 2
  0,                                      !- Minute 2
  0.2,                                    !- Value Until Time 2
  20,                                     !- Hour 3
  0,                                      !- Minute 3
  1,                                      !- Value Until Time 3
  22,                                     !- Hour 4
  0,                                      !- Minute 4
  0.2,                                    !- Value Until Time 4
  24,                                     !- Hour 5
  0,                                      !- Minute 5
  0.05;                                   !- Value Until Time 5

OS:Schedule:Day,
  {3a6a84ae-729b-4bb9-a6f1-182e8534fc41}, !- Handle
  0600|2200|AssistedLiving|default|occ Winter Design Day, !- Name
  {b6fa8695-4984-4aa7-a7b3-17dc7c7342c4}, !- Schedule Type Limits Name
  ,                                       !- Interpolate to Timestep
  24,                                     !- Hour 1
  0,                                      !- Minute 1
  0;                                      !- Value Until Time 1

OS:Schedule:Rule,
  {e2d65f08-3a2e-4439-bded-65dc06c53019}, !- Handle
  0600|2200|AssistedLiving|default|occ |1/1-12/31|Sat Rule, !- Name
  {7f025d76-845f-4e36-9f44-29212ff2b0a6}, !- Schedule Ruleset Name
  0,                                      !- Rule Order
  {58230213-8c60-4fa3-a944-9cc540572e39}, !- Day Schedule Name
  ,                                       !- Apply Sunday
  ,                                       !- Apply Monday
  ,                                       !- Apply Tuesday
  ,                                       !- Apply Wednesday
  ,                                       !- Apply Thursday
  ,                                       !- Apply Friday
  Yes,                                    !- Apply Saturday
  ,                                       !- Apply Holiday
  DateRange,                              !- Date Specification Type
  1,                                      !- Start Month
  1,                                      !- Start Day
  12,                                     !- End Month
  31;                                     !- End Day

OS:Schedule:Day,
  {58230213-8c60-4fa3-a944-9cc540572e39}, !- Handle
  0600|2200|AssistedLiving|default|occ |1/1-12/31|Sat, !- Name
  {b6fa8695-4984-4aa7-a7b3-17dc7c7342c4}, !- Schedule Type Limits Name
  ,                                       !- Interpolate to Timestep
  9,                                      !- Hour 1
  0,                                      !- Minute 1
  0.05,                                   !- Value Until Time 1
  11,                                     !- Hour 2
  0,                                      !- Minute 2
  0.2,                                    !- Value Until Time 2
  15,                                     !- Hour 3
  0,                                      !- Minute 3
  0.3,                                    !- Value Until Time 3
  20,                                     !- Hour 4
  0,                                      !- Minute 4
  0.2,                                    !- Value Until Time 4
  24,                                     !- Hour 5
  0,                                      !- Minute 5
  0.05;                                   !- Value Until Time 5

OS:Schedule:Rule,
  {dcd3b03d-ca94-40aa-a792-3d01a3d4ce04}, !- Handle
  0600|2200|AssistedLiving|default|occ |1/1-12/31|Sun Rule, !- Name
  {7f025d76-845f-4e36-9f44-29212ff2b0a6}, !- Schedule Ruleset Name
  1,                                      !- Rule Order
  {76bd8673-f1e6-4af6-b30a-2c94ad1f5c4e}, !- Day Schedule Name
  Yes,                                    !- Apply Sunday
  ,                                       !- Apply Monday
  ,                                       !- Apply Tuesday