
OS:Version,
  {3678537f-9d8e-4b53-8992-53c5034f02bf}, !- Handle
  1.5.5;                                  !- Version Identifier

OS:ClimateZones,
  {135edfab-17e7-40db-a436-27d385a8cd6d}, !- Handle
  ,                                       !- Active Institution
  ,                                       !- Active Year
  ASHRAE,                                 !- Climate Zone Institution Name 1
  ANSI/ASHRAE Standard 169,               !- Climate Zone Document Name 1
  2006,                                   !- Climate Zone Document Year 1
  ,                                       !- Climate Zone Value 1
  CEC,                                    !- Climate Zone Institution Name 2
  California Climate Zone Descriptions,   !- Climate Zone Document Name 2
  1995,                                   !- Climate Zone Document Year 2
  ;                                       !- Climate Zone Value 2

OS:YearDescription,
  {513d8dda-86cb-442a-b01c-1f7f0e0ac70e}; !- Handle

OS:RadianceParameters,
  {270a96f1-3c86-4b75-a667-cdf22790e2c8}, !- Handle
  1,                                      !- Accumulated Rays per Record
  0,                                      !- Direct Threshold
  1,                                      !- Direct Certainty
  1,                                      !- Direct Jitter
  1,                                      !- Direct Pretest
  6,                                      !- Ambient Bounces VMX
  2,                                      !- Ambient Bounces DMX
  4050,                                   !- Ambient Divisions VMX
  512,                                    !- Ambient Divisions DMX
  256,                                    !- Ambient Supersamples
  0.001,                                  !- Limit Weight VMX
  0.001,                                  !- Limit Weight DMX
  500,                                    !- Klems Sampling Density
  146;                                    !- Sky Discretization Resolution

OS:SimulationControl,
  {2c487a4c-bac9-4ac5-b669-1e49d9da7c2b}, !- Handle
  ,                                       !- Do Zone Sizing Calculation
  ,                                       !- Do System Sizing Calculation
  ,                                       !- Do Plant Sizing Calculation
  No,                                     !- Run Simulation for Sizing Periods
  ,                                       !- Run Simulation for Weather File Run Periods
  0.04,                                   !- Loads Convergence Tolerance Value
  ,                                       !- Temperature Convergence Tolerance Value {deltaC}
  ,                                       !- Solar Distribution
  ,                                       !- Maximum Number of Warmup Days
  2;                                      !- Minimum Number of Warmup Days

OS:Sizing:Parameters,
  {dde5af6f-7923-4600-a28a-7556673a0266}, !- Handle
  1.25,                                   !- Heating Sizing Factor
  1.15;                                   !- Cooling Sizing Factor

OS:ProgramControl,
  {05027a99-f2b3-4aeb-afc6-1425fbb4371d}; !- Handle

OS:Timestep,
  {4ebc9f1e-4707-402e-9844-67eb1ffbd522}, !- Handle
  2;                                      !- Number of Timesteps per Hour

OS:OutputControl:ReportingTolerances,
  {65797aa2-06a9-45fe-b69d-bc6e060399d3}; !- Handle

OS:ConvergenceLimits,
  {9fc11aba-8822-4f3d-970c-46391ba4040d}; !- Handle

OS:ShadowCalculation,
  {ca758bea-4416-4626-9bba-3d8795c79bd6}, !- Handle
  7,                                      !- Calculation Frequency
  15000;                                  !- Maximum Figures in Shadow Overlap Calculations

OS:SurfaceConvectionAlgorithm:Inside,
  {aaabfc36-718a-4ab0-b622-f186ebb45230}, !- Handle
  TARP;                                   !- Algorithm

OS:SurfaceConvectionAlgorithm:Outside,
  {9a0a9f6f-4bbd-4b12-a121-9492a1fcd7d6}, !- Handle
  DOE-2;                                  !- Algorithm

OS:HeatBalanceAlgorithm,
  {9d93e563-e1e0-46d7-9e39-d1c8aceb7212}, !- Handle
  ConductionTransferFunction,             !- Algorithm
  200;                                    !- Surface Temperature Upper Limit {F}

OS:ZoneAirHeatBalanceAlgorithm,
  {8520d93e-310f-4696-9bcd-36228bfdd743}, !- Handle
  AnalyticalSolution;                     !- Algorithm

OS:ZoneAirContaminantBalance,
  {eb5fc3ae-fb22-4160-8fcb-3e3b22b000d3}; !- Handle

OS:ZoneCapacitanceMultiplier:ResearchSpecial,
  {4020ce4f-5a7a-4849-8028-8305d7b751b1}, !- Handle
  ,                                       !- Temperature Capacity Multiplier
  ,                                       !- Humidity Capacity Multiplier
  ;                                       !- Carbon Dioxide Capacity Multiplier

OS:RunPeriod,
  {28df894d-6af9-4fb8-8f56-df1753344aa3}, !- Handle
  Run Period 1,                           !- Name
  1,                                      !- Begin Month
  1,                                      !- Begin Day of Month
  12,                                     !- End Month
  31,                                     !- End Day of Month
  ,                                       !- Use Weather File Holidays and Special Days
  ,                                       !- Use Weather File Daylight Saving Period
  ,                                       !- Apply Weekend Holiday Rule
  ,                                       !- Use Weather File Rain Indicators
  ,                                       !- Use Weather File Snow Indicators
  ;                                       !- Number of Times Runperiod to be Repeated

OS:Building,
  {bf305633-c5a1-4881-9edf-ca5e1a8e1274}, !- Handle
  Building 1,                             !- Name
  ,                                       !- Building Sector Type
  ,                                       !- North Axis {deg}
  ,                                       !- Nominal Floor to Floor Height {m}
  ,                                       !- Space Type Name
  ,                                       !- Default Construction Set Name
  {c60a89de-ce67-45d2-a302-bdad13abee0b}, !- Default Schedule Set Name
  ,                                       !- Standards Number of Stories
  ,                                       !- Standards Number of Above Ground Stories
  AssistedLiving;                         !- Standards Building Type

OS:LifeCycleCost:Parameters,
  {231cf8a0-f0e7-4251-a99f-11f0d464e661}, !- Handle
  FEMP,                                   !- Analysis Type
  ,                                       !- Discounting Convention
  ,                                       !- Inflation Approach
  ,                                       !- Real Discount Rate
  ,                                       !- Nominal Discount Rate
  ,                                       !- Inflation
  ,                                       !- Base Date Month
  ,                                       !- Base Date Year
  ,                                       !- Service Date Month
  ,                                       !- Service Date Year
  ,                                       !- Length of Study Period in Years
  ,                                       !- Tax Rate
  ,                                       !- Depreciation Method
  Yes;                                    !- Use NIST Fuel Escalation Rates

OS:Facility,
  {3ba8e45b-b833-44eb-a723-ea6c3946dc96}; !- Handle

OS:SpaceType,
  {bbf2d9bc-26d3-4adb-a984-5bebbc0cf94f}, !- Handle
  AssistedLiving|BlendPat|DOE Ref Pre-1980|ASHRAE 169-2006-5A, !- Name
  {7d2f0c59-2e19-441a-9c22-c43a819d5d77}, !- Default Construction Set Name
  ,                                       !- Default Schedule Set Name
  {8f87afc6-faa3-40fc-85f3-5d00223be28c}, !- Group Rendering Name
  {7174cfc1-93db-428b-a155-0a3af0f4adb7}, !- Design Specification Outdoor Air Object Name
  AssistedLiving,                         !- Standards Building Type
  BlendPat;                               !- Standards Space Type

OS:Rendering:Color,
  {8f87afc6-faa3-40fc-85f3-5d00223be28c}, !- Handle
  Rendering Color 1,                      !- Name
  78,                                     !- Rendering Red Value
  167,                                    !- Rendering Green Value
  222;                                    !- Rendering Blue Value

OS:SpaceType,
  {7614262f-610f-4f93-a8f0-b5ebce82d26a}, !- Handle
  AssistedLiving|BlendCom|DOE Ref Pre-1980|ASHRAE 169-2006-5A, !- Name
  {7d2f0c59-2e19-441a-9c22-c43a819d5d77}, !- Default Construction Set Name
  ,                                       !- Default Schedule Set Name
  {bd97c26b-2384-469b-931d-13b8db943d54}, !- Group Rendering Name
  {5564ac45-01c6-4a6b-8503-76e6bc68c3c3}, !- Design Specification Outdoor Air Object Name
  AssistedLiving,                         !- Standards Building Type
  BlendCom;                               !- Standards Space Type

OS:Rendering:Color,
  {bd97c26b-2384-469b-931d-13b8db943d54}, !- Handle
  Rendering Color 2,                      !- Name
  31,                                     !- Rendering Red Value
  169,                                    !- Rendering Green Value
  34;                                     !- Rendering Blue Value

OS:SpaceType,
  {6a9bf62f-4c73-4c6b-8c1d-42547dd7072b}, !- Handle
  AssistedLiving|Kitchen|DOE Ref Pre-1980|ASHRAE 169-2006-5A, !- Name
  {7d2f0c59-2e19-441a-9c22-c43a819d5d77}, !- Default Construction Set Name
  {e364c3d7-d0d8-42fd-817b-6e7cd58594f4}, !- Default Schedule Set Name
  {23a75e8f-f0e7-493a-b329-7c074de8b91a}, !- Group Rendering Name
  {ad8ae20c-175e-4636-be01-8b945c8a11c4}, !- Design Specification Outdoor Air Object Name
  AssistedLiving,                         !- Standards Building Type
  Kitchen;                                !- Standards Space Type

OS:Rendering:Color,
  {23a75e8f-f0e7-493a-b329-7c074de8b91a}, !- Handle
  Rendering Color 3,                      !- Name
  78,                                     !- Rendering Red Value
  222,                                    !- Rendering Green Value
  133;                                    !- Rendering Blue Value

OS:Schedule:Ruleset,
  {ed5e261e-9cb2-45d8-93fc-83a05be45f14}, !- Handle
  0600|2200|AssistedLiving|default|hoo,   !- Name
  {5f1ba462-9ed3-4dd0-85ad-9ee2cfda58f1}, !- Schedule Type Limits Name
  {b8ca3a43-44dc-40bd-9ea2-0249409e0897}, !- Default Day Schedule Name
  {2e987af5-8c16-4898-ace2-4c3d275abe33}, !- Summer Design Day Schedule Name
  {e465c70a-296c-4566-a5e3-e2a14b0f173f}; !- Winter Design Day Schedule Name

OS:Schedule:Day,
  {b8ca3a43-44dc-40bd-9ea2-0249409e0897}, !- Handle
  0600|2200|AssistedLiving|default|hoo Schedule Week Day, !- Name
  {5f1ba462-9ed3-4dd0-85ad-9ee2cfda58f1}, !- Schedule Type Limits Name
  ,                                       !- Interpolate to Timestep
  6,                                      !- Hour 1
  0,                                      !- Minute 1
  0,                                      !- Value Until Time 1
  22,                                     !- Hour 2
  0,                                      !- Minute 2
  1,                                      !- Value Until Time 2
  24,                                     !- Hour 3
  0,                                      !- Minute 3
  0;                                      !- Value Until Time 3

OS:Schedule:Day,
  {43609ddb-d052-4290-a8b7-c1fe00f20b35}, !- Handle
  Schedule Day 2,                         !- Name
  ,                                       !- Schedule Type Limits Name
  ,                                       !- Interpolate to Timestep
  24,                                     !- Hour 1
  0,                                      !- Minute 1
  0;                                      !- Value Until Time 1

OS:Schedule:Day,
  {e465c70a-296c-4566-a5e3-e2a14b0f173f}, !- Handle
  0600|2200|AssistedLiving|default|hoo Winter Design Day, !- Name
  {5f1ba462-9ed3-4dd0-85ad-9ee2cfda58f1}, !- Schedule Type Limits Name
  ,                                       !- Interpolate to Timestep
  24,                                     !- Hour 1
  0,                                      !- Minute 1
  0;                                      !- Value Until Time 1

OS:Schedule:Day,
  {4c96c2cd-eea6-4f01-9cab-ab5ec1cfc60d}, !- Handle
  Schedule Day 3,                         !- Name
  ,                                       !- Schedule Type Limits Name
  ,                                       !- Interpolate to Timestep
  24,                                     !- Hour 1
  0,                                      !- Minute 1
  0;                                      !- Value Until Time 1

OS:Schedule:Day,
  {2e987af5-8c16-4898-ace2-4c3d275abe33}, !- Handle
  0600|2200|AssistedLiving|default|hoo Summer Design Day, !- Name
  {5f1ba462-9ed3-4dd0-85ad-9ee2cfda58f1}, !- Schedule Type Limits Name
  ,                                       !- Interpolate to Timestep
  24,                                     !- Hour 1
  0,                                      !- Minute 1
  1;                                      !- Value Until Time 1

OS:DefaultScheduleSet,
  {c60a89de-ce67-45d2-a302-bdad13abee0b}, !- Handle
  Building Hours of Operation,            !- Name
  {ed5e261e-9cb2-45d8-93fc-83a05be45f14}, !- Hours of Operation Schedule Name
  ,                                       !- Number of People Schedule Name
  ,                                       !- People Activity Level Schedule Name
  ,                                       !- Lighting Schedule Name
  ,                                       !- Electric Equipment Schedule Name
  ,                                       !- Gas Equipment Schedule Name
  ,                                       !- Hot Water Equipment Schedule Name
  ,                                       !- Infiltration Schedule Name
  ,                                       !- Steam Equipment Schedule Name
  ;                                       !- Other Equipment Schedule Name

OS:ScheduleTypeLimits,
  {5f1ba462-9ed3-4dd0-85ad-9ee2cfda58f1}, !- Handle
  OnOff,                                  !- Name
  0,                                      !- Lower Limit Value {BasedOnField A4}
  1,                                      !- Upper Limit Value {BasedOnField A4}
  Discrete,                               !- Numeric Type
  Availability;                           !- Unit Type

OS:Schedule:Ruleset,
  {68df8149-b4e9-4429-8f61-c3e6f1172b81}, !- Handle
  0600|2200|AssistedLiving|Kitchen|gas_equip, !- Name
  {71ca552d-aedd-4249-8fbd-c9d7b971e4db}, !- Schedule Type Limits Name
  {0fee3365-f6e5-46f2-88ac-b4457191dbec}, !- Default Day Schedule Name
  {218332ef-13a9-4f49-ba43-e05f623591f3}, !- Summer Design Day Schedule Name
  {14b44022-1acf-4080-b517-cfd27599c19b}; !- Winter Design Day Schedule Name

OS:ScheduleTypeLimits,
  {71ca552d-aedd-4249-8fbd-c9d7b971e4db}, !- Handle
  Equipment Schedule Type Limits,         !- Name
  0,                                      !- Lower Limit Value {BasedOnField A4}
  1,                                      !- Upper Limit Value {BasedOnField A4}
  Continuous,                             !- Numeric Type
  Dimensionless;                          !- Unit Type

OS:Schedule:Day,
  {0fee3365-f6e5-46f2-88ac-b4457191dbec}, !- Handle
  0600|2200|AssistedLiving|Kitchen|gas_equip |default, !- Name
  {71ca552d-aedd-4249-8fbd-c9d7b971e4db}, !- Schedule Type Limits Name
  ,                                       !- Interpolate to Timestep
  7,                                      !- Hour 1
  0,                                      !- Minute 1
  0.02,                                   !- Value Until Time 1
  8,                                      !- Hour 2
  0,                                      !- Minute 2
  0.05,                                   !- Value Until Time 2
  9,                                      !- Hour 3
  0,                                      !- Minute 3
  0.1,                                    !- Value Until Time 3
  10,                                     !- Hour 4
  0,                                      !- Minute 4
  0.15,                                   !- Value Until Time 4
  11,                                     !- Hour 5
  0,                                      !- Minute 5
  0.2,                                    !- Value Until Time 5
  12,                                     !- Hour 6
  0,                                      !- Minute 6
  0.15,                                   !- Value Until Time 6
  13,                                     !- Hour 7
  0,                                      !- Minute 7
  0.25,                                   !- Value Until Time 7
  14,                                     !- Hour 8
  0,                                      !- Minute 8
  0.2,                                    !- Value Until Time 8
  15,                                     !- Hour 9
  0,                                      !- Minute 9
  0.15,                                   !- Value Until Time 9
  16,                                     !- Hour 10
  0,                                      !- Minute 10
  0.2,                                    !- Value Until Time 10
  19,                                     !- Hour 11
  0,                                      !- Minute 11
  0.3,                                    !- Value Until Time 11
  21,                                     !- Hour 12
  0,                                      !- Minute 12
  0.2,                                    !- Value Until Time 12
  22,                                     !- Hour 13
  0,                                      !- Minute 13
  0.15,                                   !- Value Until Time 13
  23,                                     !- Hour 14
  0,                                      !- Minute 14
  0.1,                                    !- Value Until Time 14
  24,                                     !- Hour 15
  0,                                      !- Minute 15
  0.05;                                   !- Value Until Time 15

OS:Schedule:Day,
  {218332ef-13a9-4f49-ba43-e05f623591f3}, !- Handle
  0600|2200|AssistedLiving|Kitchen|gas_equip Summer Design Day, !- Name
  {71ca552d-aedd-4249-8fbd-c9d7b971e4db}, !- Schedule Type Limits Name
  ,                                       !- Interpolate to Timestep
  7,                                      !- Hour 1
  0,                                      !- Minute 1
  0.02,                                   !- Value Until Time 1
  8,                                      !- Hour 2
  0,                                      !- Minute 2
  0.05,                                   !- Value Until Time 2
  9,                                      !- Hour 3
  0,                                      !- Minute 3
  0.1,                                    !- Value Until Time 3
  10,                                     !- Hour 4
  0,                                      !- Minute 4
  0.15,                                   !- Value Until Time 4
  11,                                     !- Hour 5
  0,                                      !- Minute 5
  0.2,                                    !- Value Until Time 5
  12,                                     !- Hour 6
  0,                                      !- Minute 6
  0.15,                                   !- Value Until Time 6
  13,                                     !- Hour 7
  0,                                      !- Minute 7
  0.25,                                   !- Value Until Time 7
  14,                                     !- Hour 8
  0,                                      !- Minute 8
  0.2,                                    !- Value Until Time 8
  15,                                     !- Hour 9
  0,                                      !- Minute 9
  0.15,                                   !- Value Until Time 9
  16,                                     !- Hour 10
  0,                                      !- Minute 10
  0.2,                                    !- Value Until Time 10
  19,                                     !- Hour 11
  0,                                      !- Minute 11
  1,                                      !- Value Until Time 11
  21,                                     !- Hour 12
  0,                                      !- Minute 12
  0.2,                                    !- Value Until Time 12
  22,                                     !- Hour 13
  0,                                      !- Minute 13
  0.15,                                   !- Value Until Time 13
  23,                                     !- Hour 14
  0,                                      !- Minute 14
  0.1,                                    !- Value Until Time 14
  24,                                     !- Hour 15
  0,                                      !- Minute 15
  0.05;                                   !- Value Until Time 15

OS:Schedule:Day,
  {14b44022-1acf-4080-b517-cfd27599c19b}, !- Handle
  0600|2200|AssistedLiving|Kitchen|gas_equip Winter Design Day, !- Name
  {71ca552d-aedd-4249-8fbd-c9d7b971e4db}, !- Schedule Type Limits Name
  ,                                       !- Interpolate to Timestep
  24,                                     !- Hour 1
  0,                                      !- Minute 1
  0.02;                                   !- Value Until Time 1

OS:Schedule:Ruleset,
  {21d75261-6977-4318-bb28-7c07d1dd10bb}, !- Handle
  0600|2200|AssistedLiving|default|air_velocity, !- Name
  {49b321f0-b2c7-4962-b6bb-8cf76b9bcc88}, !- Schedule Type Limits Name
  {223206b6-aade-4ad7-8ec4-f835cc1b4d88}, !- Default Day Schedule Name
  {25d9872e-c6b0-4faf-909d-8fd0d57810fa}, !- Summer Design Day Schedule Name
  {e7746b4b-850f-403b-aab2-52134db9e495}; !- Winter Design Day Schedule Name

OS:ScheduleTypeLimits,
  {49b321f0-b2c7-4962-b6bb-8cf76b9bcc88}, !- Handle
  Dimensionless Schedule Type Limits,     !- Name
  ,                                       !- Lower Limit Value {BasedOnField A4}
  ,                                       !- Upper Limit Value {BasedOnField A4}
  Continuous,                             !- Numeric Type
  Dimensionless;                          !- Unit Type

OS:Schedule:Day,
  {223206b6-aade-4ad7-8ec4-f835cc1b4d88}, !- Handle
  0600|2200|AssistedLiving|default|air_velocity |default, !- Name
  {49b321f0-b2c7-4962-b6bb-8cf76b9bcc88}, !- Schedule Type Limits Name
  ,                                       !- Interpolate to Timestep
  24,                                     !- Hour 1
  0,                                      !- Minute 1
  0.200152;                               !- Value Until Time 1

OS:Schedule:Day,
  {25d9872e-c6b0-4faf-909d-8fd0d57810fa}, !- Handle
  0600|2200|AssistedLiving|default|air_velocity Summer Design Day, !- Name
  {49b321f0-b2c7-4962-b6bb-8cf76b9bcc88}, !- Schedule Type Limits Name
  ,                                       !- Interpolate to Timestep
  24,                                     !- Hour 1
  0,                                      !- Minute 1
  0.200152;                               !- Value Until Time 1

OS:Schedule:Day,
  {e7746b4b-850f-403b-aab2-52134db9e495}, !- Handle
  0600|2200|AssistedLiving|default|air_velocity Winter Design Day, !- Name
  {49b321f0-b2c7-4962-b6bb-8cf76b9bcc88}, !- Schedule Type Limits Name
  ,                                       !- Interpolate to Timestep
  24,                                     !- Hour 1
  0,                                      !- Minute 1
  0.200152;                               !- Value Until Time 1

OS:Schedule:Ruleset,
  {63e701f0-2553-4c38-910b-b650b9e4cbd5}, !- Handle
  0600|2200|AssistedLiving|default|occ,   !- Name
  {f9567ad0-ed73-4f9b-b1b3-aa388796cb65}, !- Schedule Type Limits Name
  {9aa895d3-5ce4-4818-bc77-5ea6a509aa10}, !- Default Day Schedule Name
  {c8796a2a-5077-4312-b0d4-bbb2771bf315}, !- Summer Design Day Schedule Name
  {d25b1ed2-24d8-4ab5-8e4b-54febe4acdf0}; !- Winter Design Day Schedule Name

OS:ScheduleTypeLimits,
  {f9567ad0-ed73-4f9b-b1b3-aa388796cb65}, !- Handle
  Occupancy Schedule Type Limits,         !- Name
  0,                                      !- Lower Limit Value {BasedOnField A4}
  1,                                      !- Upper Limit Value {BasedOnField A4}
  Continuous,                             !- Numeric Type
  Dimensionless;                          !- Unit Type

OS:Schedule:Day,
  {9aa895d3-5ce4-4818-bc77-5ea6a509aa10}, !- Handle
  0600|2200|AssistedLiving|default|occ |default, !- Name
  {f9567ad0-ed73-4f9b-b1b3-aa388796cb65}, !- Schedule Type Limits Name
  ,                                       !- Interpolate to Timestep
  6,                                      !- Hour 1
  0,                                      !- Minute 1
  0.05,                                   !- Value Until Time 1
  8,                                      !- Hour 2
  0,                                      !- Minute 2
  0.2,                                    !- Value Until Time 2
  9,                                      !- Hour 3
  0,                                      !- Minute 3
  0.5,                                    !- Value Until Time 3
  18,                                     !- Hour 4
  0,                                      !- Minute 4
  0.9,                                    !- Value Until Time 4
  20,                                     !- Hour 5
  0,                                      !- Minute 5
  0.5,                                    !- Value Until Time 5
  22,                                     !- Hour 6
  0,                                      !- Minute 6
  0.2,                                    !- Value Until Time 6
  24,                                     !- Hour 7
  0,                                      !- Minute 7
  0.05;                                   !- Value Until Time 7

OS:Schedule:Day,
  {c8796a2a-5077-4312-b0d4-bbb2771bf315}, !- Handle
  0600|2200|AssistedLiving|default|occ Summer Design Day, !- Name
  {f9567ad0-ed73-4f9b-b1b3-aa388796cb65}, !- Schedule Type Limits Name
  ,                                       !- Interpolate to Timestep
  6,                                      !- Hour 1
  0,                                      !- Minute 1
  0.05,                                   !- Value Until Time 1
  8,                                      !- Hour 2
  0,                                      !- Minute 2
  0.2,                                    !- Value Until Time 2
  20,                                     !- Hour 3
  0,                                      !- Minute 3
  1,                                      !- Value Until Time 3
  22,                                     !- Hour 4
  0,                                      !- Minute 4
  0.2,                                    !- Value Until Time 4
  24,                                     !- Hour 5
  0,                                      !- Minute 5
  0.05;                                   !- Value Until Time 5

OS:Schedule:Day,
  {d25b1ed2-24d8-4ab5-8e4b-54febe4acdf0}, !- Handle
  0600|2200|AssistedLiving|default|occ Winter Design Day, !- Name
  {f9567ad0-ed73-4f9b-b1b3-aa388796cb65}, !- Schedule Type Limits Name
  ,                                       !- Interpolate to Timestep
  24,                                     !- Hour 1
  0,                                      !- Minute 1
  0;                                      !- Value Until Time 1

OS:Schedule:Rule,
  {96f0871e-c95b-4ce6-91a7-97d78577e42c}, !- Handle
  0600|2200|AssistedLiving|default|occ |1/1-12/31|Sat Rule, !- Name
  {63e701f0-2553-4c38-910b-b650b9e4cbd5}, !- Schedule Ruleset Name
  0,                                      !- Rule Order
  {75e12aad-1749-49f0-aa23-69f46cd37be5}, !- Day Schedule Name
  ,                                       !- Apply Sunday
  ,                                       !- Apply Monday
  ,                                       !- Apply Tuesday
  ,                                       !- Apply Wednesday
  ,                                       !- Apply Thursday
  ,                                       !- Apply Friday
  Yes,                                    !- Apply Saturday
  ,                                       !- Apply Holiday
  DateRange,                              !- Date Specification Type
  1,                                      !- Start Month
  1,                                      !- Start Day
  12,                                     !- End Month
  31;                                     !- End Day

OS:Schedule:Day,
  {75e12aad-1749-49f0-aa23-69f46cd37be5}, !- Handle
  0600|2200|AssistedLiving|default|occ |1/1-12/31|Sat, !- Name
  {f9567ad0-ed73-4f9b-b1b3-aa388796cb65}, !- Schedule Type Limits Name
  ,                                       !- Interpolate to Timestep
  9,                                      !- Hour 1
  0,                                      !- Minute 1
  0.05,                                   !- Value Until Time 1
  11,                                     !- Hour 2
  0,                                      !- Minute 2
  0.2,                                    !- Value Until Time 2
  15,                                     !- Hour 3
  0,                                      !- Minute 3
  0.3,                                    !- Value Until Time 3
  20,                                     !- Hour 4
  0,                                      !- Minute 4
  0.2,                                    !- Value Until Time 4
  24,                                     !- Hour 5
  0,                                      !- Minute 5
  0.05;                                   !- Value Until Time 5

OS:Schedule:Rule,
  {1c7f8ad8-40d0-4b73-8f55-fbc62d91bbaa}, !- Handle
  0600|2200|AssistedLiving|default|occ |1/1-12/31|Sun Rule, !- Name
  {63e701f0-2553-4c38-910b-b650b9e4cbd5}, !- Schedule Ruleset Name
  1,                                      !- Rule Order
  {f8752314-ec98-4dcd-ba70-dc9bef256dc3}, !- Day Schedule Name
  Yes,                                    !- Apply Sunday
  ,                                       !- Apply Monday
  ,                                       !- Apply Tuesday