
OS:Version,
  {5fdcbb05-8c8d-44c1-8bf2-df9a59047644}, !- Handle
  1.6.0;                                  !- Version Identifier

OS:ClimateZones,
  {135edfab-17e7-40db-a436-27d385a8cd6d}, !- Handle
  ,                                       !- Active Institution
  ,                                       !- Active Year
  ASHRAE,                                 !- Climate Zone Institution Name 1
  ANSI/ASHRAE Standard 169,               !- Climate Zone Document Name 1
  2006,                                   !- Climate Zone Document Year 1
  ,                                       !- Climate Zone Value 1
  CEC,                                    !- Climate Zone Institution Name 2
  California Climate Zone Descriptions,   !- Climate Zone Document Name 2
  1995,                                   !- Climate Zone Document Year 2
  ;                                       !- Climate Zone Value 2

OS:YearDescription,
  {513d8dda-86cb-442a-b01c-1f7f0e0ac70e}; !- Handle

OS:RadianceParameters,
  {270a96f1-3c86-4b75-a667-cdf22790e2c8}, !- Handle
  1,                                      !- Accumulated Rays per Record
  0,                                      !- Direct Threshold
  1,                                      !- Direct Certainty
  1,                                      !- Direct Jitter
  1,                                      !- Direct Pretest
  6,                                      !- Ambient Bounces VMX
  2,                                      !- Ambient Bounces DMX
  4050,                                   !- Ambient Divisions VMX
  512,                                    !- Ambient Divisions DMX
  256,                                    !- Ambient Supersamples
  0.001,                                  !- Limit Weight VMX
  0.001,                                  !- Limit Weight DMX
  500,                                    !- Klems Sampling Density
  146;                                    !- Sky Discretization Resolution

OS:SimulationControl,
  {2c487a4c-bac9-4ac5-b669-1e49d9da7c2b}, !- Handle
  ,                                       !- Do Zone Sizing Calculation
  ,                                       !- Do System Sizing Calculation
  ,                                       !- Do Plant Sizing Calculation
  No,                                     !- Run Simulation for Sizing Periods
  ,                                       !- Run Simulation for Weather File Run Periods
  0.04,                                   !- Loads Convergence Tolerance Value
  ,                                       !- Temperature Convergence Tolerance Value {deltaC}
  ,                                       !- Solar Distribution
  ,                                       !- Maximum Number of Warmup Days
  2;                                      !- Minimum Number of Warmup Days

OS:Sizing:Parameters,
  {dde5af6f-7923-4600-a28a-7556673a0266}, !- Handle
  1.25,                                   !- Heating Sizing Factor
  1.15;                                   !- Cooling Sizing Factor

OS:ProgramControl,
  {05027a99-f2b3-4aeb-afc6-1425fbb4371d}; !- Handle

OS:Timestep,
  {4ebc9f1e-4707-402e-9844-67eb1ffbd522}, !- Handle
  2;                                      !- Number of Timesteps per Hour

OS:OutputControl:ReportingTolerances,
  {65797aa2-06a9-45fe-b69d-bc6e060399d3}; !- Handle

OS:ConvergenceLimits,
  {9fc11aba-8822-4f3d-970c-46391ba4040d}; !- Handle

OS:ShadowCalculation,
  {ca758bea-4416-4626-9bba-3d8795c79bd6}, !- Handle
  7,                                      !- Calculation Frequency
  15000;                                  !- Maximum Figures in Shadow Overlap Calculations

OS:SurfaceConvectionAlgorithm:Inside,
  {aaabfc36-718a-4ab0-b622-f186ebb45230}, !- Handle
  TARP;                                   !- Algorithm

OS:SurfaceConvectionAlgorithm:Outside,
  {9a0a9f6f-4bbd-4b12-a121-9492a1fcd7d6}, !- Handle
  DOE-2;                                  !- Algorithm

OS:HeatBalanceAlgorithm,
  {9d93e563-e1e0-46d7-9e39-d1c8aceb7212}, !- Handle
  ConductionTransferFunction,             !- Algorithm
  200;                                    !- Surface Temperature Upper Limit {F}

OS:ZoneAirHeatBalanceAlgorithm,
  {8520d93e-310f-4696-9bcd-36228bfdd743}, !- Handle
  AnalyticalSolution;                     !- Algorithm

OS:ZoneAirContaminantBalance,
  {eb5fc3ae-fb22-4160-8fcb-3e3b22b000d3}; !- Handle

OS:ZoneCapacitanceMultiplier:ResearchSpecial,
  {4020ce4f-5a7a-4849-8028-8305d7b751b1}, !- Handle
  ,                                       !- Temperature Capacity Multiplier
  ,                                       !- Humidity Capacity Multiplier
  ;                                       !- Carbon Dioxide Capacity Multiplier

OS:RunPeriod,
  {28df894d-6af9-4fb8-8f56-df1753344aa3}, !- Handle
  Run Period 1,                           !- Name
  1,                                      !- Begin Month
  1,                                      !- Begin Day of Month
  12,                                     !- End Month
  31,                                     !- End Day of Month
  ,                                       !- Use Weather File Holidays and Special Days
  ,                                       !- Use Weather File Daylight Saving Period
  ,                                       !- Apply Weekend Holiday Rule
  ,                                       !- Use Weather File Rain Indicators
  ,                                       !- Use Weather File Snow Indicators
  ;                                       !- Number of Times Runperiod to be Repeated

OS:Building,
  {bf305633-c5a1-4881-9edf-ca5e1a8e1274}, !- Handle
  Building 1,                             !- Name
  ,                                       !- Building Sector Type
  ,                                       !- North Axis {deg}
  ,                                       !- Nominal Floor to Floor Height {m}
  ,                                       !- Space Type Name
  ,                                       !- Default Construction Set Name
  {e4492699-3e8f-4b16-b702-c03c7e3950bb}, !- Default Schedule Set Name
  ,                                       !- Standards Number of Stories
  ,                                       !- Standards Number of Above Ground Stories
  AssistedLiving;                         !- Standards Building Type

OS:LifeCycleCost:Parameters,
  {231cf8a0-f0e7-4251-a99f-11f0d464e661}, !- Handle
  FEMP,                                   !- Analysis Type
  ,                                       !- Discounting Convention
  ,                                       !- Inflation Approach
  ,                                       !- Real Discount Rate
  ,                                       !- Nominal Discount Rate
  ,                                       !- Inflation
  ,                                       !- Base Date Month
  ,                                       !- Base Date Year
  ,                                       !- Service Date Month
  ,                                       !- Service Date Year
  ,                                       !- Length of Study Period in Years
  ,                                       !- Tax Rate
  ,                                       !- Depreciation Method
  Yes;                                    !- Use NIST Fuel Escalation Rates

OS:Facility,
  {3ba8e45b-b833-44eb-a723-ea6c3946dc96}; !- Handle

OS:SpaceType,
  {6f5f2da5-d501-4cba-9e3f-cf3262b4ee5c}, !- Handle
  AssistedLiving|BlendPat|DOE Ref 1980-2004|ASHRAE 169-2006-5A, !- Name
  {63dad69d-8ca9-4bc3-ac00-ca49e72e1226}, !- Default Construction Set Name
  ,                                       !- Default Schedule Set Name
  {c409124c-3d66-44d6-b2b9-7cd8c5cb9bc0}, !- Group Rendering Name
  {ca5c5e28-2b56-4e3e-b55e-12168c0ac7ea}, !- Design Specification Outdoor Air Object Name
  AssistedLiving,                         !- Standards Building Type
  BlendPat;                               !- Standards Space Type

OS:Rendering:Color,
  {c409124c-3d66-44d6-b2b9-7cd8c5cb9bc0}, !- Handle
  Rendering Color 1,                      !- Name
  78,                                     !- Rendering Red Value
  167,                                    !- Rendering Green Value
  222;                                    !- Rendering Blue Value

OS:SpaceType,
  {9c7e1d7d-9d71-42f0-8184-8dbb47e10c5d}, !- Handle
  AssistedLiving|BlendCom|DOE Ref 1980-2004|ASHRAE 169-2006-5A, !- Name
  {63dad69d-8ca9-4bc3-ac00-ca49e72e1226}, !- Default Construction Set Name
  ,                                       !- Default Schedule Set Name
  {e5c67cab-674f-469a-84fd-13476af4277e}, !- Group Rendering Name
  {a20ee1e4-95a2-49ee-a142-815065405d3e}, !- Design Specification Outdoor Air Object Name
  AssistedLiving,                         !- Standards Building Type
  BlendCom;                               !- Standards Space Type

OS:Rendering:Color,
  {e5c67cab-674f-469a-84fd-13476af4277e}, !- Handle
  Rendering Color 2,                      !- Name
  31,                                     !- Rendering Red Value
  169,                                    !- Rendering Green Value
  34;                                     !- Rendering Blue Value

OS:SpaceType,
  {178157bb-8751-45a5-bda8-9f13e1263240}, !- Handle
  AssistedLiving|Kitchen|DOE Ref 1980-2004|ASHRAE 169-2006-5A, !- Name
  {63dad69d-8ca9-4bc3-ac00-ca49e72e1226}, !- Default Construction Set Name
  {bc21df14-e7be-47c6-a3a5-40042c0db6d6}, !- Default Schedule Set Name
  {b38f131e-0d5a-4a3b-a260-c7004675e865}, !- Group Rendering Name
  {cadd4886-3dd8-4ab2-afbd-db4bba7915fd}, !- Design Specification Outdoor Air Object Name
  AssistedLiving,                         !- Standards Building Type
  Kitchen;                                !- Standards Space Type

OS:Rendering:Color,
  {b38f131e-0d5a-4a3b-a260-c7004675e865}, !- Handle
  Rendering Color 3,                      !- Name
  78,                                     !- Rendering Red Value
  222,                                    !- Rendering Green Value
  133;                                    !- Rendering Blue Value

OS:Schedule:Ruleset,
  {ddce9a8f-6ca4-45be-80e5-5c75c376983e}, !- Handle
  0600|2200|AssistedLiving|default|hoo,   !- Name
  {d2b5e283-376c-4734-ba62-79da9f027e54}, !- Schedule Type Limits Name
  {e6a1524c-fea4-44b6-91aa-a97e95b099e0}, !- Default Day Schedule Name
  {3a5d1771-b97f-476e-b9fc-72843a4a6807}, !- Summer Design Day Schedule Name
  {940b133a-27b9-4cbc-9d47-903bd09bcdf9}; !- Winter Design Day Schedule Name

OS:Schedule:Day,
  {e6a1524c-fea4-44b6-91aa-a97e95b099e0}, !- Handle
  0600|2200|AssistedLiving|default|hoo Schedule Week Day, !- Name
  {d2b5e283-376c-4734-ba62-79da9f027e54}, !- Schedule Type Limits Name
  ,                                       !- Interpolate to Timestep
  6,                                      !- Hour 1
  0,                                      !- Minute 1
  0,                                      !- Value Until Time 1
  22,                                     !- Hour 2
  0,                                      !- Minute 2
  1,                                      !- Value Until Time 2
  24,                                     !- Hour 3
  0,                                      !- Minute 3
  0;                                      !- Value Until Time 3

OS:Schedule:Day,
  {ebc48305-50cf-42ee-93a6-e9deb5fd057d}, !- Handle
  Schedule Day 2,                         !- Name
  ,                                       !- Schedule Type Limits Name
  ,                                       !- Interpolate to Timestep
  24,                                     !- Hour 1
  0,                                      !- Minute 1
  0;                                      !- Value Until Time 1

OS:Schedule:Day,
  {940b133a-27b9-4cbc-9d47-903bd09bcdf9}, !- Handle
  0600|2200|AssistedLiving|default|hoo Winter Design Day, !- Name
  {d2b5e283-376c-4734-ba62-79da9f027e54}, !- Schedule Type Limits Name
  ,                                       !- Interpolate to Timestep
  24,                                     !- Hour 1
  0,                                      !- Minute 1
  0;                                      !- Value Until Time 1

OS:Schedule:Day,
  {544f7be1-190c-4118-9626-4e17693a99cf}, !- Handle
  Schedule Day 3,                         !- Name
  ,                                       !- Schedule Type Limits Name
  ,                                       !- Interpolate to Timestep
  24,                                     !- Hour 1
  0,                                      !- Minute 1
  0;                                      !- Value Until Time 1

OS:Schedule:Day,
  {3a5d1771-b97f-476e-b9fc-72843a4a6807}, !- Handle
  0600|2200|AssistedLiving|default|hoo Summer Design Day, !- Name
  {d2b5e283-376c-4734-ba62-79da9f027e54}, !- Schedule Type Limits Name
  ,                                       !- Interpolate to Timestep
  24,                                     !- Hour 1
  0,                                      !- Minute 1
  1;                                      !- Value Until Time 1

OS:DefaultScheduleSet,
  {e4492699-3e8f-4b16-b702-c03c7e3950bb}, !- Handle
  Building Hours of Operation,            !- Name
  {ddce9a8f-6ca4-45be-80e5-5c75c376983e}, !- Hours of Operation Schedule Name
  ,                                       !- Number of People Schedule Name
  ,                                       !- People Activity Level Schedule Name
  ,                                       !- Lighting Schedule Name
  ,                                       !- Electric Equipment Schedule Name
  ,                                       !- Gas Equipment Schedule Name
  ,                                       !- Hot Water Equipment Schedule Name
  ,                                       !- Infiltration Schedule Name
  ,                                       !- Steam Equipment Schedule Name
  ;                                       !- Other Equipment Schedule Name

OS:ScheduleTypeLimits,
  {d2b5e283-376c-4734-ba62-79da9f027e54}, !- Handle
  OnOff,                                  !- Name
  0,                                      !- Lower Limit Value {BasedOnField A4}
  1,                                      !- Upper Limit Value {BasedOnField A4}
  Discrete,                               !- Numeric Type
  Availability;                           !- Unit Type

OS:Schedule:Ruleset,
  {1a7d13ba-a87e-4f60-b698-d1cfcdecc31f}, !- Handle
  0600|2200|AssistedLiving|Kitchen|htg_setpoint, !- Name
  {0f7ee2d3-15d9-42ee-8fcf-bde2116fe643}, !- Schedule Type Limits Name
  {17bb50f8-1645-45f8-8af1-eec575edca1f}, !- Default Day Schedule Name
  {ee186d56-99e3-47a1-969e-cc11aa5acdda}, !- Summer Design Day Schedule Name
  {e7798947-153f-443a-afdd-ac9bb742b219}; !- Winter Design Day Schedule Name

OS:ScheduleTypeLimits,
  {0f7ee2d3-15d9-42ee-8fcf-bde2116fe643}, !- Handle
  Thermostat Heating Setpoint Schedule Type Limits, !- Name
  0,                                      !- Lower Limit Value {BasedOnField A4}
  100,                                    !- Upper Limit Value {BasedOnField A4}
  Continuous,                             !- Numeric Type
  Temperature;                            !- Unit Type

OS:Schedule:Day,
  {17bb50f8-1645-45f8-8af1-eec575edca1f}, !- Handle
  0600|2200|AssistedLiving|Kitchen|htg_setpoint |default, !- Name
  {0f7ee2d3-15d9-42ee-8fcf-bde2116fe643}, !- Schedule Type Limits Name
  ,                                       !- Interpolate to Timestep
  24,                                     !- Hour 1
  0,                                      !- Minute 1
  19.0000000000001;                       !- Value Until Time 1

OS:Schedule:Day,
  {ee186d56-99e3-47a1-969e-cc11aa5acdda}, !- Handle
  0600|2200|AssistedLiving|Kitchen|htg_setpoint Summer Design Day, !- Name
  {0f7ee2d3-15d9-42ee-8fcf-bde2116fe643}, !- Schedule Type Limits Name
  ,                                       !- Interpolate to Timestep
  24,                                     !- Hour 1
  0,                                      !- Minute 1
  19.0000000000001;                       !- Value Until Time 1

OS:Schedule:Day,
  {e7798947-153f-443a-afdd-ac9bb742b219}, !- Handle
  0600|2200|AssistedLiving|Kitchen|htg_setpoint Winter Design Day, !- Name
  {0f7ee2d3-15d9-42ee-8fcf-bde2116fe643}, !- Schedule Type Limits Name
  ,                                       !- Interpolate to Timestep
  24,                                     !- Hour 1
  0,                                      !- Minute 1
  19.0000000000001;                       !- Value Until Time 1

OS:Schedule:Rule,
  {78db4bfe-5f87-4fc2-a7c8-2972ebfad834}, !- Handle
  0600|2200|AssistedLiving|Kitchen|htg_setpoint |1/1-12/31|Sat/Sun Rule, !- Name
  {1a7d13ba-a87e-4f60-b698-d1cfcdecc31f}, !- Schedule Ruleset Name
  0,                                      !- Rule Order
  {01cd347d-db12-4508-8c9f-a5b66bdbc3c0}, !- Day Schedule Name
  Yes,                                    !- Apply Sunday
  ,                                       !- Apply Monday
  ,                                       !- Apply Tuesday
  ,                                       !- Apply Wednesday
  ,                                       !- Apply Thursday
  ,                                       !- Apply Friday
  Yes,                                    !- Apply Saturday
  ,                                       !- Apply Holiday
  DateRange,                              !- Date Specification Type
  1,                                      !- Start Month
  1,                                      !- Start Day
  12,                                     !- End Month
  31;                                     !- End Day

OS:Schedule:Day,
  {01cd347d-db12-4508-8c9f-a5b66bdbc3c0}, !- Handle
  0600|2200|AssistedLiving|Kitchen|htg_setpoint |1/1-12/31|Sat/Sun, !- Name
  {0f7ee2d3-15d9-42ee-8fcf-bde2116fe643}, !- Schedule Type Limits Name
  ,                                       !- Interpolate to Timestep
  24,                                     !- Hour 1
  0,                                      !- Minute 1
  15.6;                                   !- Value Until Time 1

OS:Schedule:Ruleset,
  {679fed32-450a-488c-bebb-1bbb1e19449d}, !- Handle
  0600|2200|AssistedLiving|Kitchen|elec_equip, !- Name
  {430951a6-1716-4375-9297-59e8cb8bdaee}, !- Schedule Type Limits Name
  {0c606627-1246-4102-bb6d-e348bb58fe79}, !- Default Day Schedule Name
  {3341d95e-a7f3-46c9-9ad7-65901381ff6a}, !- Summer Design Day Schedule Name
  {dae31c1c-872a-4d6f-a1c7-d275bcfe6172}; !- Winter Design Day Schedule Name

OS:ScheduleTypeLimits,
  {430951a6-1716-4375-9297-59e8cb8bdaee}, !- Handle
  Equipment Schedule Type Limits,         !- Name
  0,                                      !- Lower Limit Value {BasedOnField A4}
  1,                                      !- Upper Limit Value {BasedOnField A4}
  Continuous,                             !- Numeric Type
  Dimensionless;                          !- Unit Type

OS:Schedule:Day,
  {0c606627-1246-4102-bb6d-e348bb58fe79}, !- Handle
  0600|2200|AssistedLiving|Kitchen|elec_equip |default, !- Name
  {430951a6-1716-4375-9297-59e8cb8bdaee}, !- Schedule Type Limits Name
  ,                                       !- Interpolate to Timestep
  7,                                      !- Hour 1
  0,                                      !- Minute 1
  0.02,                                   !- Value Until Time 1
  8,                                      !- Hour 2
  0,                                      !- Minute 2
  0.05,                                   !- Value Until Time 2
  9,                                      !- Hour 3
  0,                                      !- Minute 3
  0.1,                                    !- Value Until Time 3
  10,                                     !- Hour 4
  0,                                      !- Minute 4
  0.15,                                   !- Value Until Time 4
  11,                                     !- Hour 5
  0,                                      !- Minute 5
  0.2,                                    !- Value Until Time 5
  12,                                     !- Hour 6
  0,                                      !- Minute 6
  0.15,                                   !- Value Until Time 6
  13,                                     !- Hour 7
  0,                                      !- Minute 7
  0.25,                                   !- Value Until Time 7
  14,                                     !- Hour 8
  0,                                      !- Minute 8
  0.2,                                    !- Value Until Time 8
  15,                                     !- Hour 9
  0,                                      !- Minute 9
  0.15,                                   !- Value Until Time 9
  16,                                     !- Hour 10
  0,                                      !- Minute 10
  0.2,                                    !- Value Until Time 10
  19,                                     !- Hour 11
  0,                                      !- Minute 11
  0.3,                                    !- Value Until Time 11
  21,                                     !- Hour 12
  0,                                      !- Minute 12
  0.2,                                    !- Value Until Time 12
  22,                                     !- Hour 13
  0,                                      !- Minute 13
  0.15,                                   !- Value Until Time 13
  23,                                     !- Hour 14
  0,                                      !- Minute 14
  0.1,                                    !- Value Until Time 14
  24,                                     !- Hour 15
  0,                                      !- Minute 15
  0.05;                                   !- Value Until Time 15

OS:Schedule:Day,
  {3341d95e-a7f3-46c9-9ad7-65901381ff6a}, !- Handle
  0600|2200|AssistedLiving|Kitchen|elec_equip Summer Design Day, !- Name
  {430951a6-1716-4375-9297-59e8cb8bdaee}, !- Schedule Type Limits Name
  ,                                       !- Interpolate to Timestep
  7,                                      !- Hour 1
  0,                                      !- Minute 1
  0.02,                                   !- Value Until Time 1
  8,                                      !- Hour 2
  0,                                      !- Minute 2
  0.05,                                   !- Value Until Time 2
  9,                                      !- Hour 3
  0,                                      !- Minute 3
  0.1,                                    !- Value Until Time 3
  10,                                     !- Hour 4
  0,                                      !- Minute 4
  0.15,                                   !- Value Until Time 4
  11,                                     !- Hour 5
  0,                                      !- Minute 5
  0.2,                                    !- Value Until Time 5
  12,                                     !- Hour 6
  0,                                      !- Minute 6
  0.15,                                   !- Value Until Time 6
  13,                                     !- Hour 7
  0,                                      !- Minute 7
  0.25,                                   !- Value Until Time 7
  14,                                     !- Hour 8
  0,                                      !- Minute 8
  0.2,                                    !- Value Until Time 8
  15,                                     !- Hour 9
  0,                                      !- Minute 9
  0.15,                                   !- Value Until Time 9
  16,                                     !- Hour 10
  0,                                      !- Minute 10
  0.2,                                    !- Value Until Time 10
  19,                                     !- Hour 11
  0,                                      !- Minute 11
  1,                                      !- Value Until Time 11
  21,                                     !- Hour 12
  0,                                      !- Minute 12
  0.2,                                    !- Value Until Time 12
  22,                                     !- Hour 13
  0,                                      !- Minute 13
  0.15,                                   !- Value Until Time 13
  23,                                     !- Hour 14
  0,                                      !- Minute 14
  0.1,                                    !- Value Until Time 14
  24,                                     !- Hour 15
  0,                                      !- Minute 15
  0.05;                                   !- Value Until Time 15

OS:Schedule:Day,
  {dae31c1c-872a-4d6f-a1c7-d275bcfe6172}, !- Handle
  0600|2200|AssistedLiving|Kitchen|elec_equip Winter Design Day, !- Name
  {430951a6-1716-4375-9297-59e8cb8bdaee}, !- Schedule Type Limits Name
  ,                                       !- Interpolate to Timestep
  24,                                     !- Hour 1
  0,                                      !- Minute 1
  0.02;                                   !- Value Until Time 1

OS:Schedule:Ruleset,
  {e570b8e6-43fe-4105-a873-77e81f6ca515}, !- Handle
  0600|2200|AssistedLiving|default|rh,    !- Name
  {559dcd1f-9efd-4aa6-ae2a-5b41a63fe023}, !- Schedule Type Limits Name
  {82bc16c0-1f48-4b84-8540-92006426a60f}, !- Default Day Schedule Name
  {be5ba1e8-0bc5-4f6e-947a-822ff3ea5b9d}, !- Summer Design Day Schedule Name
  {2ec6e476-2fe1-434f-89f9-db427e839b14}; !- Winter Design Day Schedule Name

OS:ScheduleTypeLimits,
  {559dcd1f-9efd-4aa6-ae2a-5b41a63fe023}, !- Handle
  Dimensionless Schedule Type Limits,     !- Name
  ,                                       !- Lower Limit Value {BasedOnField A4}
  ,                                       !- Upper Limit Value {BasedOnField A4}
  Continuous,                             !- Numeric Type
  Dimensionless;                          !- Unit Type

OS:Schedule:Day,
  {82bc16c0-1f48-4b84-8540-92006426a60f}, !- Handle
  0600|2200|AssistedLiving|default|rh |default, !- Name
  {559dcd1f-9efd-4aa6-ae2a-5b41a63fe023}, !- Schedule Type Limits Name
  ,                                       !- Interpolate to Timestep
  24,                                     !- Hour 1
  0,                                      !- Minute 1
  50;                                     !- Value Until Time 1

OS:Schedule:Day,
  {be5ba1e8-0bc5-4f6e-947a-822ff3ea5b9d}, !- Handle
  0600|2200|AssistedLiving|default|rh Summer Design Day, !- Name
  {559dcd1f-9efd-4aa6-ae2a-5b41a63fe023}, !- Schedule Type Limits Name
  ,                                       !- Interpolate to Timestep
  24,                                     !- Hour 1
  0,                                      !- Minute 1
  50;                                     !- Value Until Time 1

OS:Schedule:Day,
  {2ec6e476-2fe1-434f-89f9-db427e839b14}, !- Handle
  0600|2200|AssistedLiving|default|rh Winter Design Day, !- Name
  {559dcd1f-9efd-4aa6-ae2a-5b41a63fe023}, !- Schedule Type Limits Name
  ,                                       !- Interpolate to Timestep
  24,                                     !- Hour 1
  0,                                      !- Minute 1
  50;                                     !- Value Until Time 1

OS:Schedule:Ruleset,
  {f109d78c-05ce-4128-84da-e9cae83933d0}, !- Handle
  0600|2200|AssistedLiving|default|activity, !- Name
  {8b1a698f-557e-4f66-a793-22e4dd6d5827}, !- Schedule Type Limits Name
  {2f428512-5144-4005-9d57-60311c26d79a}, !- Default Day Schedule Name
  {a8b5f42f-d55a-4e05-bcda-9043ca225181}, !- Summer Design Day Schedule Name
  {8525ac40-72f3-4e86-a8d6-8b03cc49cbec}; !- Winter Design Day Schedule Name

OS:ScheduleTypeLimits,
  {8b1a698f-557e-4f66-a793-22e4dd6d5827}, !- Handle
  People Activity Type Limits,            !- Name
  0,                                      !- Lower Limit Value {BasedOnField A4}
  ,                                       !- Upper Limit Value {BasedOnField A4}
  Continuous,                             !- Numeric Type
  ActivityLevel;                          !- Unit Type

OS:Schedule:Day,
  {2f428512-5144-4005-9d57-60311c26d79a}, !- Handle
  0600|2200|AssistedLiving|default|activity |default, !- Name
  {8b1a698f-557e-4f66-a793-22e4dd6d5827}, !- Schedule Type Limits Name
  ,                                       !- Interpolate to Timestep
  24,                                     !- Hour 1
  0,                                      !- Minute 1
  120;                                    !- Value Until Time 1

OS:Schedule:Day,
  {a8b5f42f-d55a-4e05-bcda-9043ca225181}, !- Handle
  0600|2200|AssistedLiving|default|activity Summer Design Day, !- Name
  {8b1a698f-557e-4f66-a793-22e4dd6d5827}, !- Schedule Type Limits Name
  ,                                       !- Interpolate to Timestep
  24,                                     !- Hour 1
  0,                                      !- Minute 1
  120;                                    !- Value Until Time 1

OS:Schedule:Day,
  {8525ac40-72f3-4e86-a8d6-8b03cc49cbec}, !- Handle
  0600|2200|AssistedLiving|default|activity Winter Design Day, !- Name
  {8b1a698f-557e-4f66-a793-22e4dd6d5827}, !- Schedule Type Limits Name
  ,                                       !- Interpolate to Timestep
  24,                                     !- Hour 1
  0,                                      !- Minute 1
  120;                                    !- Value Until Time 1

OS:Schedule:Ruleset,
  {053af861-ba6a-49fa-a9a5-80fd3358a956}, !- Handle
  0600|2200|AssistedLiving|default|lighting, !- Name
  {d0ab6cbb-9d74-4969-8107-069b9e281f36}, !- Schedule Type Limits Name
  {01426c55-6f12-496a-9b8e-b7117b0c210f}, !- Default Day Schedule Name
  {5d4cb391-95dd-42c2-9244-826a790bc1fd}, !- Summer Design Day Schedule Name
  {4537b20f-bfe0-48ba-8c13-339cd4edf243}; !- Winter Design Day Schedule Name

OS:ScheduleTypeLimits,
  {d0ab6cbb-9d74-4969-8107-069b9e281f36}, !- Handle
  Lights Schedule Type Limits,            !- Name
  0,                                      !- Lower Limit Value {BasedOnField A4}