
OS:Version,
  {bd91621b-b470-4fb1-95dc-9bb2e77d5e7a}, !- Handle
  1.6.0;                                  !- Version Identifier

OS:ClimateZones,
  {135edfab-17e7-40db-a436-27d385a8cd6d}, !- Handle
  ,                                       !- Active Institution
  ,                                       !- Active Year
  ASHRAE,                                 !- Climate Zone Institution Name 1
  ANSI/ASHRAE Standard 169,               !- Climate Zone Document Name 1
  2006,                                   !- Climate Zone Document Year 1
  ,                                       !- Climate Zone Value 1
  CEC,                                    !- Climate Zone Institution Name 2
  California Climate Zone Descriptions,   !- Climate Zone Document Name 2
  1995,                                   !- Climate Zone Document Year 2
  ;                                       !- Climate Zone Value 2

OS:YearDescription,
  {513d8dda-86cb-442a-b01c-1f7f0e0ac70e}; !- Handle

OS:RadianceParameters,
  {270a96f1-3c86-4b75-a667-cdf22790e2c8}, !- Handle
  1,                                      !- Accumulated Rays per Record
  0,                                      !- Direct Threshold
  1,                                      !- Direct Certainty
  1,                                      !- Direct Jitter
  1,                                      !- Direct Pretest
  6,                                      !- Ambient Bounces VMX
  2,                                      !- Ambient Bounces DMX
  4050,                                   !- Ambient Divisions VMX
  512,                                    !- Ambient Divisions DMX
  256,                                    !- Ambient Supersamples
  0.001,                                  !- Limit Weight VMX
  0.001,                                  !- Limit Weight DMX
  500,                                    !- Klems Sampling Density
  146;                                    !- Sky Discretization Resolution

OS:SimulationControl,
  {2c487a4c-bac9-4ac5-b669-1e49d9da7c2b}, !- Handle
  ,                                       !- Do Zone Sizing Calculation
  ,                                       !- Do System Sizing Calculation
  ,                                       !- Do Plant Sizing Calculation
  No,                                     !- Run Simulation for Sizing Periods
  ,                                       !- Run Simulation for Weather File Run Periods
  0.04,                                   !- Loads Convergence Tolerance Value
  ,                                       !- Temperature Convergence Tolerance Value {deltaC}
  ,                                       !- Solar Distribution
  ,                                       !- Maximum Number of Warmup Days
  2;                                      !- Minimum Number of Warmup Days

OS:Sizing:Parameters,
  {dde5af6f-7923-4600-a28a-7556673a0266}, !- Handle
  1.25,                                   !- Heating Sizing Factor
  1.15;                                   !- Cooling Sizing Factor

OS:ProgramControl,
  {05027a99-f2b3-4aeb-afc6-1425fbb4371d}; !- Handle

OS:Timestep,
  {4ebc9f1e-4707-402e-9844-67eb1ffbd522}, !- Handle
  2;                                      !- Number of Timesteps per Hour

OS:OutputControl:ReportingTolerances,
  {65797aa2-06a9-45fe-b69d-bc6e060399d3}; !- Handle

OS:ConvergenceLimits,
  {9fc11aba-8822-4f3d-970c-46391ba4040d}; !- Handle

OS:ShadowCalculation,
  {ca758bea-4416-4626-9bba-3d8795c79bd6}, !- Handle
  7,                                      !- Calculation Frequency
  15000;                                  !- Maximum Figures in Shadow Overlap Calculations

OS:SurfaceConvectionAlgorithm:Inside,
  {aaabfc36-718a-4ab0-b622-f186ebb45230}, !- Handle
  TARP;                                   !- Algorithm

OS:SurfaceConvectionAlgorithm:Outside,
  {9a0a9f6f-4bbd-4b12-a121-9492a1fcd7d6}, !- Handle
  DOE-2;                                  !- Algorithm

OS:HeatBalanceAlgorithm,
  {9d93e563-e1e0-46d7-9e39-d1c8aceb7212}, !- Handle
  ConductionTransferFunction,             !- Algorithm
  200;                                    !- Surface Temperature Upper Limit {F}

OS:ZoneAirHeatBalanceAlgorithm,
  {8520d93e-310f-4696-9bcd-36228bfdd743}, !- Handle
  AnalyticalSolution;                     !- Algorithm

OS:ZoneAirContaminantBalance,
  {eb5fc3ae-fb22-4160-8fcb-3e3b22b000d3}; !- Handle

OS:ZoneCapacitanceMultiplier:ResearchSpecial,
  {4020ce4f-5a7a-4849-8028-8305d7b751b1}, !- Handle
  ,                                       !- Temperature Capacity Multiplier
  ,                                       !- Humidity Capacity Multiplier
  ;                                       !- Carbon Dioxide Capacity Multiplier

OS:RunPeriod,
  {28df894d-6af9-4fb8-8f56-df1753344aa3}, !- Handle
  Run Period 1,                           !- Name
  1,                                      !- Begin Month
  1,                                      !- Begin Day of Month
  12,                                     !- End Month
  31,                                     !- End Day of Month
  ,                                       !- Use Weather File Holidays and Special Days
  ,                                       !- Use Weather File Daylight Saving Period
  ,                                       !- Apply Weekend Holiday Rule
  ,                                       !- Use Weather File Rain Indicators
  ,                                       !- Use Weather File Snow Indicators
  ;                                       !- Number of Times Runperiod to be Repeated

OS:Building,
  {bf305633-c5a1-4881-9edf-ca5e1a8e1274}, !- Handle
  Building 1,                             !- Name
  ,                                       !- Building Sector Type
  ,                                       !- North Axis {deg}
  ,                                       !- Nominal Floor to Floor Height {m}
  ,                                       !- Space Type Name
  ,                                       !- Default Construction Set Name
  {743affb9-5e93-4879-a090-5e25b400edc9}, !- Default Schedule Set Name
  ,                                       !- Standards Number of Stories
  ,                                       !- Standards Number of Above Ground Stories
  AutoSales;                              !- Standards Building Type

OS:LifeCycleCost:Parameters,
  {231cf8a0-f0e7-4251-a99f-11f0d464e661}, !- Handle
  FEMP,                                   !- Analysis Type
  ,                                       !- Discounting Convention
  ,                                       !- Inflation Approach
  ,                                       !- Real Discount Rate
  ,                                       !- Nominal Discount Rate
  ,                                       !- Inflation
  ,                                       !- Base Date Month
  ,                                       !- Base Date Year
  ,                                       !- Service Date Month
  ,                                       !- Service Date Year
  ,                                       !- Length of Study Period in Years
  ,                                       !- Tax Rate
  ,                                       !- Depreciation Method
  Yes;                                    !- Use NIST Fuel Escalation Rates

OS:Facility,
  {3ba8e45b-b833-44eb-a723-ea6c3946dc96}; !- Handle

OS:SpaceType,
  {8a312b9b-f1f3-4ac6-82ac-7772cc5742f6}, !- Handle
  AutoSales|BlendFront|DOE Ref 1980-2004|ASHRAE 169-2006-5A, !- Name
  {7cc94690-86ea-4c16-8dbc-a6b69f8e29df}, !- Default Construction Set Name
  ,                                       !- Default Schedule Set Name
  {44b704fe-494b-4802-be56-680b7d859635}, !- Group Rendering Name
  {996cf4b5-aa17-48e2-a695-3d4f4af3de2c}, !- Design Specification Outdoor Air Object Name
  AutoSales,                              !- Standards Building Type
  BlendFront;                             !- Standards Space Type

OS:Rendering:Color,
  {44b704fe-494b-4802-be56-680b7d859635}, !- Handle
  Rendering Color 1,                      !- Name
  120,                                    !- Rendering Red Value
  120,                                    !- Rendering Green Value
  120;                                    !- Rendering Blue Value

OS:SpaceType,
  {24401ab0-b20b-44dc-b71c-1a94e5a44ba2}, !- Handle
  AutoSales|Garage|DOE Ref 1980-2004|ASHRAE 169-2006-5A, !- Name
  {7cc94690-86ea-4c16-8dbc-a6b69f8e29df}, !- Default Construction Set Name
  {c8635f76-cff1-46f6-8afc-ea018aaf4778}, !- Default Schedule Set Name
  {0e771e48-6382-4131-851b-870000bdb1e2}, !- Group Rendering Name
  {5970804e-7ecc-4cba-83b2-b1bc85e6b2f3}, !- Design Specification Outdoor Air Object Name
  AutoSales,                              !- Standards Building Type
  Garage;                                 !- Standards Space Type

OS:Rendering:Color,
  {0e771e48-6382-4131-851b-870000bdb1e2}, !- Handle
  Rendering Color 2,                      !- Name
  120,                                    !- Rendering Red Value
  120,                                    !- Rendering Green Value
  120;                                    !- Rendering Blue Value

OS:SpaceType,
  {37b03ec7-4585-4111-abc6-7df446601859}, !- Handle
  AutoSales|Restroom|DOE Ref 1980-2004|ASHRAE 169-2006-5A, !- Name
  {7cc94690-86ea-4c16-8dbc-a6b69f8e29df}, !- Default Construction Set Name
  {48b81fa9-79d3-4e57-b651-162363b6999e}, !- Default Schedule Set Name
  {f2a11a92-16c5-4836-970a-0413b80c65d2}, !- Group Rendering Name
  {eadca26f-c86c-4fe1-a037-ba7be937e37c}, !- Design Specification Outdoor Air Object Name
  AutoSales,                              !- Standards Building Type
  Restroom;                               !- Standards Space Type

OS:Rendering:Color,
  {f2a11a92-16c5-4836-970a-0413b80c65d2}, !- Handle
  Rendering Color 3,                      !- Name
  169,                                    !- Rendering Red Value
  169,                                    !- Rendering Green Value
  31;                                     !- Rendering Blue Value

OS:Schedule:Ruleset,
  {6a02bf6d-3b85-4167-9311-d8fb3c89fb05}, !- Handle
  0900|2000|AutoSales|default|hoo,        !- Name
  {5fbfba0b-e743-4f86-aee1-bc3f72e2c765}, !- Schedule Type Limits Name
  {e40c9987-ecbd-4684-b1e6-264870d21a2b}, !- Default Day Schedule Name
  {e0dc24b2-8c2e-4a8c-b253-dbaf0ac67133}, !- Summer Design Day Schedule Name
  {0843ba01-0786-466f-84b0-ccbed8b25483}; !- Winter Design Day Schedule Name

OS:Schedule:Day,
  {e40c9987-ecbd-4684-b1e6-264870d21a2b}, !- Handle
  0900|2000|AutoSales|default|hoo Schedule Week Day, !- Name
  {5fbfba0b-e743-4f86-aee1-bc3f72e2c765}, !- Schedule Type Limits Name
  ,                                       !- Interpolate to Timestep
  9,                                      !- Hour 1
  0,                                      !- Minute 1
  0,                                      !- Value Until Time 1
  20,                                     !- Hour 2
  0,                                      !- Minute 2
  1,                                      !- Value Until Time 2
  24,                                     !- Hour 3
  0,                                      !- Minute 3
  0;                                      !- Value Until Time 3

OS:Schedule:Day,
  {5e564905-cabd-4eae-8bd3-0075e1552d2a}, !- Handle
  Schedule Day 2,                         !- Name
  ,                                       !- Schedule Type Limits Name
  ,                                       !- Interpolate to Timestep
  24,                                     !- Hour 1
  0,                                      !- Minute 1
  0;                                      !- Value Until Time 1

OS:Schedule:Day,
  {0843ba01-0786-466f-84b0-ccbed8b25483}, !- Handle
  0900|2000|AutoSales|default|hoo Winter Design Day, !- Name
  {5fbfba0b-e743-4f86-aee1-bc3f72e2c765}, !- Schedule Type Limits Name
  ,                                       !- Interpolate to Timestep
  24,                                     !- Hour 1
  0,                                      !- Minute 1
  0;                                      !- Value Until Time 1

OS:Schedule:Day,
  {de7f36ae-226c-401c-815c-5061dfaf19f6}, !- Handle
  Schedule Day 3,                         !- Name
  ,                                       !- Schedule Type Limits Name
  ,                                       !- Interpolate to Timestep
  24,                                     !- Hour 1
  0,                                      !- Minute 1
  0;                                      !- Value Until Time 1

OS:Schedule:Day,
  {e0dc24b2-8c2e-4a8c-b253-dbaf0ac67133}, !- Handle
  0900|2000|AutoSales|default|hoo Summer Design Day, !- Name
  {5fbfba0b-e743-4f86-aee1-bc3f72e2c765}, !- Schedule Type Limits Name
  ,                                       !- Interpolate to Timestep
  24,                                     !- Hour 1
  0,                                      !- Minute 1
  1;                                      !- Value Until Time 1

OS:DefaultScheduleSet,
  {743affb9-5e93-4879-a090-5e25b400edc9}, !- Handle
  Building Hours of Operation,            !- Name
  {6a02bf6d-3b85-4167-9311-d8fb3c89fb05}, !- Hours of Operation Schedule Name
  ,                                       !- Number of People Schedule Name
  ,                                       !- People Activity Level Schedule Name
  ,                                       !- Lighting Schedule Name
  ,                                       !- Electric Equipment Schedule Name
  ,                                       !- Gas Equipment Schedule Name
  ,                                       !- Hot Water Equipment Schedule Name
  ,                                       !- Infiltration Schedule Name
  ,                                       !- Steam Equipment Schedule Name
  ;                                       !- Other Equipment Schedule Name

OS:ScheduleTypeLimits,
  {5fbfba0b-e743-4f86-aee1-bc3f72e2c765}, !- Handle
  OnOff,                                  !- Name
  0,                                      !- Lower Limit Value {BasedOnField A4}
  1,                                      !- Upper Limit Value {BasedOnField A4}
  Discrete,                               !- Numeric Type
  Availability;                           !- Unit Type

OS:Schedule:Ruleset,
  {7f0c7214-db34-42ed-9d21-eb15ab548678}, !- Handle
  0900|2000|AutoSales|default|rh,         !- Name
  {f80eaf90-bebf-497e-8c23-9b2bc90cf44e}, !- Schedule Type Limits Name
  {75bf8e02-db8c-43f4-8359-a7d5bb523639}, !- Default Day Schedule Name
  {e7d8fc50-7a49-4447-8a61-ebe69bde46bd}, !- Summer Design Day Schedule Name
  {450daf2f-f896-4cb6-9b27-d4c1576b7df0}; !- Winter Design Day Schedule Name

OS:ScheduleTypeLimits,
  {f80eaf90-bebf-497e-8c23-9b2bc90cf44e}, !- Handle
  Dimensionless Schedule Type Limits,     !- Name
  ,                                       !- Lower Limit Value {BasedOnField A4}
  ,                                       !- Upper Limit Value {BasedOnField A4}
  Continuous,                             !- Numeric Type
  Dimensionless;                          !- Unit Type

OS:Schedule:Day,
  {75bf8e02-db8c-43f4-8359-a7d5bb523639}, !- Handle
  0900|2000|AutoSales|default|rh |default, !- Name
  {f80eaf90-bebf-497e-8c23-9b2bc90cf44e}, !- Schedule Type Limits Name
  ,                                       !- Interpolate to Timestep
  24,                                     !- Hour 1
  0,                                      !- Minute 1
  50;                                     !- Value Until Time 1

OS:Schedule:Day,
  {e7d8fc50-7a49-4447-8a61-ebe69bde46bd}, !- Handle
  0900|2000|AutoSales|default|rh Summer Design Day, !- Name
  {f80eaf90-bebf-497e-8c23-9b2bc90cf44e}, !- Schedule Type Limits Name
  ,                                       !- Interpolate to Timestep
  24,                                     !- Hour 1
  0,                                      !- Minute 1
  50;                                     !- Value Until Time 1

OS:Schedule:Day,
  {450daf2f-f896-4cb6-9b27-d4c1576b7df0}, !- Handle
  0900|2000|AutoSales|default|rh Winter Design Day, !- Name
  {f80eaf90-bebf-497e-8c23-9b2bc90cf44e}, !- Schedule Type Limits Name
  ,                                       !- Interpolate to Timestep
  24,                                     !- Hour 1
  0,                                      !- Minute 1
  50;                                     !- Value Until Time 1

OS:Schedule:Ruleset,
  {d278e49d-e1a2-4c12-a638-ac96398005a7}, !- Handle
  0900|2000|AutoSales|default|htg_setpoint, !- Name
  {5702dff1-17bd-4073-9fa7-1e26e2f54684}, !- Schedule Type Limits Name
  {5ab6ddf2-7189-42b0-8065-b200c5d5fbeb}, !- Default Day Schedule Name
  {56a6fc0f-5d73-421a-b690-821fab8cade4}, !- Summer Design Day Schedule Name
  {0af3cd19-6282-4750-8cd7-a0b3683d4cae}; !- Winter Design Day Schedule Name

OS:ScheduleTypeLimits,
  {5702dff1-17bd-4073-9fa7-1e26e2f54684}, !- Handle
  Thermostat Heating Setpoint Schedule Type Limits, !- Name
  0,                                      !- Lower Limit Value {BasedOnField A4}
  100,                                    !- Upper Limit Value {BasedOnField A4}
  Continuous,                             !- Numeric Type
  Temperature;                            !- Unit Type

OS:Schedule:Day,
  {5ab6ddf2-7189-42b0-8065-b200c5d5fbeb}, !- Handle
  0900|2000|AutoSales|default|htg_setpoint |default, !- Name
  {5702dff1-17bd-4073-9fa7-1e26e2f54684}, !- Schedule Type Limits Name
  ,                                       !- Interpolate to Timestep
  24,                                     !- Hour 1
  0,                                      !- Minute 1
  21.0000000000001;                       !- Value Until Time 1

OS:Schedule:Day,
  {56a6fc0f-5d73-421a-b690-821fab8cade4}, !- Handle
  0900|2000|AutoSales|default|htg_setpoint Summer Design Day, !- Name
  {5702dff1-17bd-4073-9fa7-1e26e2f54684}, !- Schedule Type Limits Name
  ,                                       !- Interpolate to Timestep
  24,                                     !- Hour 1
  0,                                      !- Minute 1
  21.0000000000001;                       !- Value Until Time 1

OS:Schedule:Day,
  {0af3cd19-6282-4750-8cd7-a0b3683d4cae}, !- Handle
  0900|2000|AutoSales|default|htg_setpoint Winter Design Day, !- Name
  {5702dff1-17bd-4073-9fa7-1e26e2f54684}, !- Schedule Type Limits Name
  ,                                       !- Interpolate to Timestep
  24,                                     !- Hour 1
  0,                                      !- Minute 1
  21.0000000000001;                       !- Value Until Time 1

OS:Schedule:Rule,
  {112d045c-e613-4a46-a099-a5cde41ee899}, !- Handle
  0900|2000|AutoSales|default|htg_setpoint |1/1-12/31|Sun Rule, !- Name
  {d278e49d-e1a2-4c12-a638-ac96398005a7}, !- Schedule Ruleset Name
  0,                                      !- Rule Order
  {0e39c103-9b4f-4f71-a203-b6a7dd9da1e6}, !- Day Schedule Name
  Yes,                                    !- Apply Sunday
  ,                                       !- Apply Monday
  ,                                       !- Apply Tuesday
  ,                                       !- Apply Wednesday
  ,                                       !- Apply Thursday
  ,                                       !- Apply Friday
  ,                                       !- Apply Saturday
  ,                                       !- Apply Holiday
  DateRange,                              !- Date Specification Type
  1,                                      !- Start Month
  1,                                      !- Start Day
  12,                                     !- End Month
  31;                                     !- End Day

OS:Schedule:Day,
  {0e39c103-9b4f-4f71-a203-b6a7dd9da1e6}, !- Handle
  0900|2000|AutoSales|default|htg_setpoint |1/1-12/31|Sun, !- Name
  {5702dff1-17bd-4073-9fa7-1e26e2f54684}, !- Schedule Type Limits Name
  ,                                       !- Interpolate to Timestep
  24,                                     !- Hour 1
  0,                                      !- Minute 1
  21.0000000000001;                       !- Value Until Time 1

OS:Schedule:Rule,
  {95cfac82-58c9-4c52-ae3d-1c92618cbdf9}, !- Handle
  0900|2000|AutoSales|default|htg_setpoint |1/1-12/31|Sat Rule, !- Name
  {d278e49d-e1a2-4c12-a638-ac96398005a7}, !- Schedule Ruleset Name
  1,                                      !- Rule Order
  {aaf0349c-0ace-4974-875a-e340aa1f6096}, !- Day Schedule Name
  ,                                       !- Apply Sunday
  ,                                       !- Apply Monday
  ,                                       !- Apply Tuesday
  ,                                       !- Apply Wednesday
  ,                                       !- Apply Thursday
  ,                                       !- Apply Friday
  Yes,                                    !- Apply Saturday
  ,                                       !- Apply Holiday
  DateRange,                              !- Date Specification Type
  1,                                      !- Start Month
  1,                                      !- Start Day
  12,                                     !- End Month
  31;                                     !- End Day

OS:Schedule:Day,
  {aaf0349c-0ace-4974-875a-e340aa1f6096}, !- Handle
  0900|2000|AutoSales|default|htg_setpoint |1/1-12/31|Sat, !- Name
  {5702dff1-17bd-4073-9fa7-1e26e2f54684}, !- Schedule Type Limits Name
  ,                                       !- Interpolate to Timestep
  24,                                     !- Hour 1
  0,                                      !- Minute 1
  21.0000000000001;                       !- Value Until Time 1

OS:Schedule:Ruleset,
  {fef558fb-9826-462d-a475-4606c4ad4b31}, !- Handle
  0900|2000|AutoSales|Garage|clg_setpoint, !- Name
  {cb4b9ed9-8dca-440d-8c71-06ce13a22d54}, !- Schedule Type Limits Name
  {875fdcc5-f666-43df-8fee-9d334d65ed7d}, !- Default Day Schedule Name
  {002f4b18-e227-42d7-8314-00b352982092}, !- Summer Design Day Schedule Name
  {9231227f-568a-40e7-97f6-a43a6c472c2c}; !- Winter Design Day Schedule Name

OS:ScheduleTypeLimits,
  {cb4b9ed9-8dca-440d-8c71-06ce13a22d54}, !- Handle
  Thermostat Cooling Setpoint Schedule Type Limits, !- Name
  0,                                      !- Lower Limit Value {BasedOnField A4}
  100,                                    !- Upper Limit Value {BasedOnField A4}
  Continuous,                             !- Numeric Type
  Temperature;                            !- Unit Type

OS:Schedule:Day,
  {875fdcc5-f666-43df-8fee-9d334d65ed7d}, !- Handle
  0900|2000|AutoSales|Garage|clg_setpoint |default, !- Name
  {cb4b9ed9-8dca-440d-8c71-06ce13a22d54}, !- Schedule Type Limits Name
  ,                                       !- Interpolate to Timestep
  24,                                     !- Hour 1
  0,                                      !- Minute 1
  26.6666666666667;                       !- Value Until Time 1

OS:Schedule:Day,
  {002f4b18-e227-42d7-8314-00b352982092}, !- Handle
  0900|2000|AutoSales|Garage|clg_setpoint Summer Design Day, !- Name
  {cb4b9ed9-8dca-440d-8c71-06ce13a22d54}, !- Schedule Type Limits Name
  ,                                       !- Interpolate to Timestep
  24,                                     !- Hour 1
  0,                                      !- Minute 1
  26.6666666666667;                       !- Value Until Time 1

OS:Schedule:Day,
  {9231227f-568a-40e7-97f6-a43a6c472c2c}, !- Handle
  0900|2000|AutoSales|Garage|clg_setpoint Winter Design Day, !- Name
  {cb4b9ed9-8dca-440d-8c71-06ce13a22d54}, !- Schedule Type Limits Name
  ,                                       !- Interpolate to Timestep
  24,                                     !- Hour 1
  0,                                      !- Minute 1
  26.6666666666667;                       !- Value Until Time 1

OS:Schedule:Rule,
  {cd94447e-4035-4de1-8eb7-766db44b0c08}, !- Handle
  0900|2000|AutoSales|Garage|clg_setpoint |1/1-12/31|Sun Rule, !- Name
  {fef558fb-9826-462d-a475-4606c4ad4b31}, !- Schedule Ruleset Name
  0,                                      !- Rule Order
  {a1242412-297c-49d3-8227-977197b1d08e}, !- Day Schedule Name
  Yes,                                    !- Apply Sunday
  ,                                       !- Apply Monday
  ,                                       !- Apply Tuesday
  ,                                       !- Apply Wednesday
  ,                                       !- Apply Thursday
  ,                                       !- Apply Friday
  ,                                       !- Apply Saturday
  ,                                       !- Apply Holiday
  DateRange,                              !- Date Specification Type
  1,                                      !- Start Month
  1,                                      !- Start Day
  12,                                     !- End Month
  31;                                     !- End Day

OS:Schedule:Day,
  {a1242412-297c-49d3-8227-977197b1d08e}, !- Handle
  0900|2000|AutoSales|Garage|clg_setpoint |1/1-12/31|Sun, !- Name
  {cb4b9ed9-8dca-440d-8c71-06ce13a22d54}, !- Schedule Type Limits Name
  ,                                       !- Interpolate to Timestep
  24,                                     !- Hour 1
  0,                                      !- Minute 1
  26.6666666666667;                       !- Value Until Time 1

OS:Schedule:Rule,
  {de7e6420-b940-4fd4-95ca-0bc8b3e0dafc}, !- Handle
  0900|2000|AutoSales|Garage|clg_setpoint |1/1-12/31|Sat Rule, !- Name
  {fef558fb-9826-462d-a475-4606c4ad4b31}, !- Schedule Ruleset Name
  1,                                      !- Rule Order
  {c3596c30-016f-445f-838f-de5e46df3e86}, !- Day Schedule Name
  ,                                       !- Apply Sunday
  ,                                       !- Apply Monday
  ,                                       !- Apply Tuesday
  ,                                       !- Apply Wednesday
  ,                                       !- Apply Thursday
  ,                                       !- Apply Friday
  Yes,                                    !- Apply Saturday
  ,                                       !- Apply Holiday
  DateRange,                              !- Date Specification Type
  1,                                      !- Start Month
  1,                                      !- Start Day
  12,                                     !- End Month
  31;                                     !- End Day

OS:Schedule:Day,
  {c3596c30-016f-445f-838f-de5e46df3e86}, !- Handle
  0900|2000|AutoSales|Garage|clg_setpoint |1/1-12/31|Sat, !- Name
  {cb4b9ed9-8dca-440d-8c71-06ce13a22d54}, !- Schedule Type Limits Name
  ,                                       !- Interpolate to Timestep
  24,                                     !- Hour 1
  0,                                      !- Minute 1
  26.6666666666667;                       !- Value Until Time 1

OS:Schedule:Ruleset,
  {1d87513b-37e3-40a7-81e0-c8bad9dfc858}, !- Handle
  0900|2000|AutoSales|default|thermal_ctrl, !- Name
  {f80eaf90-bebf-497e-8c23-9b2bc90cf44e}, !- Schedule Type Limits Name
  {e2a2d227-db75-40ba-8977-b38ed5c13496}, !- Default Day Schedule Name
  {e2f2b204-d6ff-41d5-9822-e898aa02a753}, !- Summer Design Day Schedule Name
  {b6d4a281-d282-4ec6-978c-f338cd376902}; !- Winter Design Day Schedule Name

OS:Schedule:Day,
  {e2a2d227-db75-40ba-8977-b38ed5c13496}, !- Handle
  0900|2000|AutoSales|default|thermal_ctrl |default, !- Name
  {f80eaf90-bebf-497e-8c23-9b2bc90cf44e}, !- Schedule Type Limits Name
  ,                                       !- Interpolate to Timestep
  24,                                     !- Hour 1
  0,                                      !- Minute 1
  4;                                      !- Value Until Time 1

OS:Schedule:Day,
  {e2f2b204-d6ff-41d5-9822-e898aa02a753}, !- Handle
  0900|2000|AutoSales|default|thermal_ctrl Summer Design Day, !- Name
  {f80eaf90-bebf-497e-8c23-9b2bc90cf44e}, !- Schedule Type Limits Name
  ,                                       !- Interpolate to Timestep
  24,                                     !- Hour 1
  0,                                      !- Minute 1
  4;                                      !- Value Until Time 1

OS:Schedule:Day,
  {b6d4a281-d282-4ec6-978c-f338cd376902}, !- Handle
  0900|2000|AutoSales|default|thermal_ctrl Winter Design Day, !- Name
  {f80eaf90-bebf-497e-8c23-9b2bc90cf44e}, !- Schedule Type Limits Name
  ,                                       !- Interpolate to Timestep
  24,                                     !- Hour 1
  0,                                      !- Minute 1
  4;                                      !- Value Until Time 1

OS:Schedule:Ruleset,
  {f548da9c-2a65-4b15-8c34-654b5939e189}, !- Handle
  0900|2000|AutoSales|default|elec_equip, !- Name
  {11ac62e2-4df9-4cdb-ac0a-9fa7a71624f6}, !- Schedule Type Limits Name
  {8cb0f94c-bd16-45bd-9d17-45f8eafb6727}, !- Default Day Schedule Name
  {b06a98e6-a5b8-4b9f-aef9-6387869a33a9}, !- Summer Design Day Schedule Name
  {ea202e32-f4e1-42a0-b40c-ee5f9f27ab42}; !- Winter Design Day Schedule Name

OS:ScheduleTypeLimits,
  {11ac62e2-4df9-4cdb-ac0a-9fa7a71624f6}, !- Handle
  Equipment Schedule Type Limits,         !- Name
  0,                                      !- Lower Limit Value {BasedOnField A4}
  1,                                      !- Upper Limit Value {BasedOnField A4}
  Continuous,                             !- Numeric Type
  Dimensionless;                          !- Unit Type

OS:Schedule:Day,
  {8cb0f94c-bd16-45bd-9d17-45f8eafb6727}, !- Handle
  0900|2000|AutoSales|default|elec_equip |default, !- Name
  {11ac62e2-4df9-4cdb-ac0a-9fa7a71624f6}, !- Schedule Type Limits Name
  ,                                       !- Interpolate to Timestep
  0,                                      !- Hour 1
  30,                                     !- Minute 1
  0.79,                                   !- Value Until Time 1
  1,                                      !- Hour 2
  0,                                      !- Minute 2