
OS:Version,
  {3ca5d27c-1881-44e0-959d-657e8b511559}, !- Handle
  1.5.5;                                  !- Version Identifier

OS:ClimateZones,
  {135edfab-17e7-40db-a436-27d385a8cd6d}, !- Handle
  ,                                       !- Active Institution
  ,                                       !- Active Year
  ASHRAE,                                 !- Climate Zone Institution Name 1
  ANSI/ASHRAE Standard 169,               !- Climate Zone Document Name 1
  2006,                                   !- Climate Zone Document Year 1
  ,                                       !- Climate Zone Value 1
  CEC,                                    !- Climate Zone Institution Name 2
  California Climate Zone Descriptions,   !- Climate Zone Document Name 2
  1995,                                   !- Climate Zone Document Year 2
  ;                                       !- Climate Zone Value 2

OS:YearDescription,
  {513d8dda-86cb-442a-b01c-1f7f0e0ac70e}; !- Handle

OS:RadianceParameters,
  {270a96f1-3c86-4b75-a667-cdf22790e2c8}, !- Handle
  1,                                      !- Accumulated Rays per Record
  0,                                      !- Direct Threshold
  1,                                      !- Direct Certainty
  1,                                      !- Direct Jitter
  1,                                      !- Direct Pretest
  6,                                      !- Ambient Bounces VMX
  2,                                      !- Ambient Bounces DMX
  4050,                                   !- Ambient Divisions VMX
  512,                                    !- Ambient Divisions DMX
  256,                                    !- Ambient Supersamples
  0.001,                                  !- Limit Weight VMX
  0.001,                                  !- Limit Weight DMX
  500,                                    !- Klems Sampling Density
  146;                                    !- Sky Discretization Resolution

OS:SimulationControl,
  {2c487a4c-bac9-4ac5-b669-1e49d9da7c2b}, !- Handle
  ,                                       !- Do Zone Sizing Calculation
  ,                                       !- Do System Sizing Calculation
  ,                                       !- Do Plant Sizing Calculation
  No,                                     !- Run Simulation for Sizing Periods
  ,                                       !- Run Simulation for Weather File Run Periods
  0.04,                                   !- Loads Convergence Tolerance Value
  ,                                       !- Temperature Convergence Tolerance Value {deltaC}
  ,                                       !- Solar Distribution
  ,                                       !- Maximum Number of Warmup Days
  2;                                      !- Minimum Number of Warmup Days

OS:Sizing:Parameters,
  {dde5af6f-7923-4600-a28a-7556673a0266}, !- Handle
  1.25,                                   !- Heating Sizing Factor
  1.15;                                   !- Cooling Sizing Factor

OS:ProgramControl,
  {05027a99-f2b3-4aeb-afc6-1425fbb4371d}; !- Handle

OS:Timestep,
  {4ebc9f1e-4707-402e-9844-67eb1ffbd522}, !- Handle
  2;                                      !- Number of Timesteps per Hour

OS:OutputControl:ReportingTolerances,
  {65797aa2-06a9-45fe-b69d-bc6e060399d3}; !- Handle

OS:ConvergenceLimits,
  {9fc11aba-8822-4f3d-970c-46391ba4040d}; !- Handle

OS:ShadowCalculation,
  {ca758bea-4416-4626-9bba-3d8795c79bd6}, !- Handle
  7,                                      !- Calculation Frequency
  15000;                                  !- Maximum Figures in Shadow Overlap Calculations

OS:SurfaceConvectionAlgorithm:Inside,
  {aaabfc36-718a-4ab0-b622-f186ebb45230}, !- Handle
  TARP;                                   !- Algorithm

OS:SurfaceConvectionAlgorithm:Outside,
  {9a0a9f6f-4bbd-4b12-a121-9492a1fcd7d6}, !- Handle
  DOE-2;                                  !- Algorithm

OS:HeatBalanceAlgorithm,
  {9d93e563-e1e0-46d7-9e39-d1c8aceb7212}, !- Handle
  ConductionTransferFunction,             !- Algorithm
  200;                                    !- Surface Temperature Upper Limit {F}

OS:ZoneAirHeatBalanceAlgorithm,
  {8520d93e-310f-4696-9bcd-36228bfdd743}, !- Handle
  AnalyticalSolution;                     !- Algorithm

OS:ZoneAirContaminantBalance,
  {eb5fc3ae-fb22-4160-8fcb-3e3b22b000d3}; !- Handle

OS:ZoneCapacitanceMultiplier:ResearchSpecial,
  {4020ce4f-5a7a-4849-8028-8305d7b751b1}, !- Handle
  ,                                       !- Temperature Capacity Multiplier
  ,                                       !- Humidity Capacity Multiplier
  ;                                       !- Carbon Dioxide Capacity Multiplier

OS:RunPeriod,
  {28df894d-6af9-4fb8-8f56-df1753344aa3}, !- Handle
  Run Period 1,                           !- Name
  1,                                      !- Begin Month
  1,                                      !- Begin Day of Month
  12,                                     !- End Month
  31,                                     !- End Day of Month
  ,                                       !- Use Weather File Holidays and Special Days
  ,                                       !- Use Weather File Daylight Saving Period
  ,                                       !- Apply Weekend Holiday Rule
  ,                                       !- Use Weather File Rain Indicators
  ,                                       !- Use Weather File Snow Indicators
  ;                                       !- Number of Times Runperiod to be Repeated

OS:Building,
  {bf305633-c5a1-4881-9edf-ca5e1a8e1274}, !- Handle
  Building 1,                             !- Name
  ,                                       !- Building Sector Type
  ,                                       !- North Axis {deg}
  ,                                       !- Nominal Floor to Floor Height {m}
  ,                                       !- Space Type Name
  ,                                       !- Default Construction Set Name
  {dcd97109-d98a-4458-be0b-5cb9c83458d2}, !- Default Schedule Set Name
  ,                                       !- Standards Number of Stories
  ,                                       !- Standards Number of Above Ground Stories
  AutoSales;                              !- Standards Building Type

OS:LifeCycleCost:Parameters,
  {231cf8a0-f0e7-4251-a99f-11f0d464e661}, !- Handle
  FEMP,                                   !- Analysis Type
  ,                                       !- Discounting Convention
  ,                                       !- Inflation Approach
  ,                                       !- Real Discount Rate
  ,                                       !- Nominal Discount Rate
  ,                                       !- Inflation
  ,                                       !- Base Date Month
  ,                                       !- Base Date Year
  ,                                       !- Service Date Month
  ,                                       !- Service Date Year
  ,                                       !- Length of Study Period in Years
  ,                                       !- Tax Rate
  ,                                       !- Depreciation Method
  Yes;                                    !- Use NIST Fuel Escalation Rates

OS:Facility,
  {3ba8e45b-b833-44eb-a723-ea6c3946dc96}; !- Handle

OS:SpaceType,
  {4152c5eb-0fe8-462c-99c3-76d796104bf7}, !- Handle
  AutoSales|BlendFront|DOE Ref Pre-1980|ASHRAE 169-2006-5A, !- Name
  {0e07353e-3ffc-491c-b414-b304469f1329}, !- Default Construction Set Name
  ,                                       !- Default Schedule Set Name
  {6a2d81f1-f582-448e-ac14-92979cc4169e}, !- Group Rendering Name
  {f0f9f74a-299d-4cab-a543-5fda0bdd4fe1}, !- Design Specification Outdoor Air Object Name
  AutoSales,                              !- Standards Building Type
  BlendFront;                             !- Standards Space Type

OS:Rendering:Color,
  {6a2d81f1-f582-448e-ac14-92979cc4169e}, !- Handle
  Rendering Color 1,                      !- Name
  120,                                    !- Rendering Red Value
  120,                                    !- Rendering Green Value
  120;                                    !- Rendering Blue Value

OS:SpaceType,
  {fb43746c-1381-4a1f-a6b2-96a0b0997e3b}, !- Handle
  AutoSales|Garage|DOE Ref Pre-1980|ASHRAE 169-2006-5A, !- Name
  {0e07353e-3ffc-491c-b414-b304469f1329}, !- Default Construction Set Name
  {171da2a0-3c38-46ad-8407-4868ec90aec9}, !- Default Schedule Set Name
  {bb4ae2ea-0ec8-432d-a586-4cd0baea09e8}, !- Group Rendering Name
  {ee4781fd-29ed-49a2-b4db-a6e7f86f5541}, !- Design Specification Outdoor Air Object Name
  AutoSales,                              !- Standards Building Type
  Garage;                                 !- Standards Space Type

OS:Rendering:Color,
  {bb4ae2ea-0ec8-432d-a586-4cd0baea09e8}, !- Handle
  Rendering Color 2,                      !- Name
  120,                                    !- Rendering Red Value
  120,                                    !- Rendering Green Value
  120;                                    !- Rendering Blue Value

OS:SpaceType,
  {ef911f50-3d57-4cae-9e5a-8afc38f8f0cb}, !- Handle
  AutoSales|Restroom|DOE Ref Pre-1980|ASHRAE 169-2006-5A, !- Name
  {0e07353e-3ffc-491c-b414-b304469f1329}, !- Default Construction Set Name
  {4acb8ab9-0b73-4d64-92cc-c3e9e4a75e4e}, !- Default Schedule Set Name
  {25853a68-677e-4f77-9024-e8bb499dc2d9}, !- Group Rendering Name
  {80fee01a-ba2a-408c-897d-712da52be80e}, !- Design Specification Outdoor Air Object Name
  AutoSales,                              !- Standards Building Type
  Restroom;                               !- Standards Space Type

OS:Rendering:Color,
  {25853a68-677e-4f77-9024-e8bb499dc2d9}, !- Handle
  Rendering Color 3,                      !- Name
  169,                                    !- Rendering Red Value
  169,                                    !- Rendering Green Value
  31;                                     !- Rendering Blue Value

OS:Schedule:Ruleset,
  {b1b6ba5f-7397-48c6-bd00-b4b670c94a60}, !- Handle
  0900|2000|AutoSales|default|hoo,        !- Name
  {5a218463-1a7f-4bed-8940-c11fc7fa550e}, !- Schedule Type Limits Name
  {7abad72a-c52a-46a6-9321-f5bf41c16c9f}, !- Default Day Schedule Name
  {9a909a07-e34f-49d7-8c2e-4c1c7d3530ac}, !- Summer Design Day Schedule Name
  {2ac8bc8a-ee8c-4812-bb85-ba7466be61f7}; !- Winter Design Day Schedule Name

OS:Schedule:Day,
  {7abad72a-c52a-46a6-9321-f5bf41c16c9f}, !- Handle
  0900|2000|AutoSales|default|hoo Schedule Week Day, !- Name
  {5a218463-1a7f-4bed-8940-c11fc7fa550e}, !- Schedule Type Limits Name
  ,                                       !- Interpolate to Timestep
  9,                                      !- Hour 1
  0,                                      !- Minute 1
  0,                                      !- Value Until Time 1
  20,                                     !- Hour 2
  0,                                      !- Minute 2
  1,                                      !- Value Until Time 2
  24,                                     !- Hour 3
  0,                                      !- Minute 3
  0;                                      !- Value Until Time 3

OS:Schedule:Day,
  {a1516018-7d51-40fa-ae4c-8018cf8676e7}, !- Handle
  Schedule Day 2,                         !- Name
  ,                                       !- Schedule Type Limits Name
  ,                                       !- Interpolate to Timestep
  24,                                     !- Hour 1
  0,                                      !- Minute 1
  0;                                      !- Value Until Time 1

OS:Schedule:Day,
  {2ac8bc8a-ee8c-4812-bb85-ba7466be61f7}, !- Handle
  0900|2000|AutoSales|default|hoo Winter Design Day, !- Name
  {5a218463-1a7f-4bed-8940-c11fc7fa550e}, !- Schedule Type Limits Name
  ,                                       !- Interpolate to Timestep
  24,                                     !- Hour 1
  0,                                      !- Minute 1
  0;                                      !- Value Until Time 1

OS:Schedule:Day,
  {ca032c92-1590-4a44-b839-6e9353e66bb4}, !- Handle
  Schedule Day 3,                         !- Name
  ,                                       !- Schedule Type Limits Name
  ,                                       !- Interpolate to Timestep
  24,                                     !- Hour 1
  0,                                      !- Minute 1
  0;                                      !- Value Until Time 1

OS:Schedule:Day,
  {9a909a07-e34f-49d7-8c2e-4c1c7d3530ac}, !- Handle
  0900|2000|AutoSales|default|hoo Summer Design Day, !- Name
  {5a218463-1a7f-4bed-8940-c11fc7fa550e}, !- Schedule Type Limits Name
  ,                                       !- Interpolate to Timestep
  24,                                     !- Hour 1
  0,                                      !- Minute 1
  1;                                      !- Value Until Time 1

OS:DefaultScheduleSet,
  {dcd97109-d98a-4458-be0b-5cb9c83458d2}, !- Handle
  Building Hours of Operation,            !- Name
  {b1b6ba5f-7397-48c6-bd00-b4b670c94a60}, !- Hours of Operation Schedule Name
  ,                                       !- Number of People Schedule Name
  ,                                       !- People Activity Level Schedule Name
  ,                                       !- Lighting Schedule Name
  ,                                       !- Electric Equipment Schedule Name
  ,                                       !- Gas Equipment Schedule Name
  ,                                       !- Hot Water Equipment Schedule Name
  ,                                       !- Infiltration Schedule Name
  ,                                       !- Steam Equipment Schedule Name
  ;                                       !- Other Equipment Schedule Name

OS:ScheduleTypeLimits,
  {5a218463-1a7f-4bed-8940-c11fc7fa550e}, !- Handle
  OnOff,                                  !- Name
  0,                                      !- Lower Limit Value {BasedOnField A4}
  1,                                      !- Upper Limit Value {BasedOnField A4}
  Discrete,                               !- Numeric Type
  Availability;                           !- Unit Type

OS:Schedule:Ruleset,
  {8787fb6c-14d6-463f-a255-ceee7da7f21e}, !- Handle
  0900|2000|AutoSales|Garage|infiltration, !- Name
  {c131d3fe-9319-4d3a-9b0b-0990fe3c2786}, !- Schedule Type Limits Name
  {a6559229-ace6-4d33-82df-e0571064e402}, !- Default Day Schedule Name
  {d3cc04a8-42af-485d-be0d-f4877dca141f}, !- Summer Design Day Schedule Name
  {a63a848c-6ef0-4041-a0d4-a43b9a09f281}; !- Winter Design Day Schedule Name

OS:ScheduleTypeLimits,
  {c131d3fe-9319-4d3a-9b0b-0990fe3c2786}, !- Handle
  Fraction Schedule Type Limits,          !- Name
  0,                                      !- Lower Limit Value {BasedOnField A4}
  1,                                      !- Upper Limit Value {BasedOnField A4}
  Continuous,                             !- Numeric Type
  Dimensionless;                          !- Unit Type

OS:Schedule:Day,
  {a6559229-ace6-4d33-82df-e0571064e402}, !- Handle
  0900|2000|AutoSales|Garage|infiltration |default, !- Name
  {c131d3fe-9319-4d3a-9b0b-0990fe3c2786}, !- Schedule Type Limits Name
  ,                                       !- Interpolate to Timestep
  24,                                     !- Hour 1
  0,                                      !- Minute 1
  1;                                      !- Value Until Time 1

OS:Schedule:Day,
  {d3cc04a8-42af-485d-be0d-f4877dca141f}, !- Handle
  0900|2000|AutoSales|Garage|infiltration Summer Design Day, !- Name
  {c131d3fe-9319-4d3a-9b0b-0990fe3c2786}, !- Schedule Type Limits Name
  ,                                       !- Interpolate to Timestep
  24,                                     !- Hour 1
  0,                                      !- Minute 1
  1;                                      !- Value Until Time 1

OS:Schedule:Day,
  {a63a848c-6ef0-4041-a0d4-a43b9a09f281}, !- Handle
  0900|2000|AutoSales|Garage|infiltration Winter Design Day, !- Name
  {c131d3fe-9319-4d3a-9b0b-0990fe3c2786}, !- Schedule Type Limits Name
  ,                                       !- Interpolate to Timestep
  24,                                     !- Hour 1
  0,                                      !- Minute 1
  1;                                      !- Value Until Time 1

OS:Schedule:Rule,
  {b583c6ba-d5ed-407a-a67f-1515d0cabe76}, !- Handle
  0900|2000|AutoSales|Garage|infiltration |1/1-12/31|Sun Rule, !- Name
  {8787fb6c-14d6-463f-a255-ceee7da7f21e}, !- Schedule Ruleset Name
  0,                                      !- Rule Order
  {daa10da4-b084-4946-97d3-be301afa147b}, !- Day Schedule Name
  Yes,                                    !- Apply Sunday
  ,                                       !- Apply Monday
  ,                                       !- Apply Tuesday
  ,                                       !- Apply Wednesday
  ,                                       !- Apply Thursday
  ,                                       !- Apply Friday
  ,                                       !- Apply Saturday
  ,                                       !- Apply Holiday
  DateRange,                              !- Date Specification Type
  1,                                      !- Start Month
  1,                                      !- Start Day
  12,                                     !- End Month
  31;                                     !- End Day

OS:Schedule:Day,
  {daa10da4-b084-4946-97d3-be301afa147b}, !- Handle
  0900|2000|AutoSales|Garage|infiltration |1/1-12/31|Sun, !- Name
  {c131d3fe-9319-4d3a-9b0b-0990fe3c2786}, !- Schedule Type Limits Name
  ,                                       !- Interpolate to Timestep
  24,                                     !- Hour 1
  0,                                      !- Minute 1
  1;                                      !- Value Until Time 1

OS:Schedule:Rule,
  {ca4bea71-8e44-42ef-b53c-61c887a2a813}, !- Handle
  0900|2000|AutoSales|Garage|infiltration |1/1-12/31|Sat Rule, !- Name
  {8787fb6c-14d6-463f-a255-ceee7da7f21e}, !- Schedule Ruleset Name
  1,                                      !- Rule Order
  {d328b00d-e5df-4f5a-8367-df36e556b843}, !- Day Schedule Name
  ,                                       !- Apply Sunday
  ,                                       !- Apply Monday
  ,                                       !- Apply Tuesday
  ,                                       !- Apply Wednesday
  ,                                       !- Apply Thursday
  ,                                       !- Apply Friday
  Yes,                                    !- Apply Saturday
  ,                                       !- Apply Holiday
  DateRange,                              !- Date Specification Type
  1,                                      !- Start Month
  1,                                      !- Start Day
  12,                                     !- End Month
  31;                                     !- End Day

OS:Schedule:Day,
  {d328b00d-e5df-4f5a-8367-df36e556b843}, !- Handle
  0900|2000|AutoSales|Garage|infiltration |1/1-12/31|Sat, !- Name
  {c131d3fe-9319-4d3a-9b0b-0990fe3c2786}, !- Schedule Type Limits Name
  ,                                       !- Interpolate to Timestep
  24,                                     !- Hour 1
  0,                                      !- Minute 1
  1;                                      !- Value Until Time 1

OS:Schedule:Ruleset,
  {7e85a4cd-c14a-475f-8630-60766f7ec5c5}, !- Handle
  0900|2000|AutoSales|default|clothing,   !- Name
  {7b90cd1f-fcfa-4a76-838e-1eff34bc40d1}, !- Schedule Type Limits Name
  {461dc291-224f-473e-b815-b4a6e7002d5a}, !- Default Day Schedule Name
  {50ab23fe-5142-4969-8c6f-0608f4d0b8fa}, !- Summer Design Day Schedule Name
  {f8f16ab8-8123-4d10-ad3c-5244b2d5f470}; !- Winter Design Day Schedule Name

OS:ScheduleTypeLimits,
  {7b90cd1f-fcfa-4a76-838e-1eff34bc40d1}, !- Handle
  Dimensionless Schedule Type Limits,     !- Name
  ,                                       !- Lower Limit Value {BasedOnField A4}
  ,                                       !- Upper Limit Value {BasedOnField A4}
  Continuous,                             !- Numeric Type
  Dimensionless;                          !- Unit Type

OS:Schedule:Day,
  {461dc291-224f-473e-b815-b4a6e7002d5a}, !- Handle
  0900|2000|AutoSales|default|clothing |default, !- Name
  {7b90cd1f-fcfa-4a76-838e-1eff34bc40d1}, !- Schedule Type Limits Name
  ,                                       !- Interpolate to Timestep
  24,                                     !- Hour 1
  0,                                      !- Minute 1
  0.9;                                    !- Value Until Time 1

OS:Schedule:Day,
  {50ab23fe-5142-4969-8c6f-0608f4d0b8fa}, !- Handle
  0900|2000|AutoSales|default|clothing Summer Design Day, !- Name
  {7b90cd1f-fcfa-4a76-838e-1eff34bc40d1}, !- Schedule Type Limits Name
  ,                                       !- Interpolate to Timestep
  24,                                     !- Hour 1
  0,                                      !- Minute 1
  0.9;                                    !- Value Until Time 1

OS:Schedule:Day,
  {f8f16ab8-8123-4d10-ad3c-5244b2d5f470}, !- Handle
  0900|2000|AutoSales|default|clothing Winter Design Day, !- Name
  {7b90cd1f-fcfa-4a76-838e-1eff34bc40d1}, !- Schedule Type Limits Name
  ,                                       !- Interpolate to Timestep
  24,                                     !- Hour 1
  0,                                      !- Minute 1
  0.9;                                    !- Value Until Time 1

OS:Schedule:Rule,
  {457e358d-3ea8-45d7-8367-51fc32de59de}, !- Handle
  0900|2000|AutoSales|default|clothing |7/1-9/30|Mon/Tue/Wed/Thu/Fri/Sat/Sun Rule, !- Name
  {7e85a4cd-c14a-475f-8630-60766f7ec5c5}, !- Schedule Ruleset Name
  0,                                      !- Rule Order
  {3b5294d4-4a4d-43d0-8e44-709f5f6247f0}, !- Day Schedule Name
  Yes,                                    !- Apply Sunday
  Yes,                                    !- Apply Monday
  Yes,                                    !- Apply Tuesday
  Yes,                                    !- Apply Wednesday
  Yes,                                    !- Apply Thursday
  Yes,                                    !- Apply Friday
  Yes,                                    !- Apply Saturday
  ,                                       !- Apply Holiday
  DateRange,                              !- Date Specification Type
  7,                                      !- Start Month
  1,                                      !- Start Day
  9,                                      !- End Month
  30;                                     !- End Day

OS:Schedule:Day,
  {3b5294d4-4a4d-43d0-8e44-709f5f6247f0}, !- Handle
  0900|2000|AutoSales|default|clothing |7/1-9/30|Mon/Tue/Wed/Thu/Fri/Sat/Sun, !- Name
  {7b90cd1f-fcfa-4a76-838e-1eff34bc40d1}, !- Schedule Type Limits Name
  ,                                       !- Interpolate to Timestep
  24,                                     !- Hour 1
  0,                                      !- Minute 1
  0.7;                                    !- Value Until Time 1

OS:Schedule:Rule,
  {923597fd-eb8d-48aa-ad1b-66f24b041a27}, !- Handle
  0900|2000|AutoSales|default|clothing |12/1-3/31|Mon/Tue/Wed/Thu/Fri/Sat/Sun Rule, !- Name
  {7e85a4cd-c14a-475f-8630-60766f7ec5c5}, !- Schedule Ruleset Name
  1,                                      !- Rule Order
  {6ff593cf-7dbd-49ce-85c7-1787f3def444}, !- Day Schedule Name
  Yes,                                    !- Apply Sunday
  Yes,                                    !- Apply Monday
  Yes,                                    !- Apply Tuesday
  Yes,                                    !- Apply Wednesday
  Yes,                                    !- Apply Thursday
  Yes,                                    !- Apply Friday
  Yes,                                    !- Apply Saturday
  ,                                       !- Apply Holiday
  DateRange,                              !- Date Specification Type
  12,                                     !- Start Month
  1,                                      !- Start Day
  3,                                      !- End Month
  31;                                     !- End Day

OS:Schedule:Day,
  {6ff593cf-7dbd-49ce-85c7-1787f3def444}, !- Handle
  0900|2000|AutoSales|default|clothing |12/1-3/31|Mon/Tue/Wed/Thu/Fri/Sat/Sun, !- Name
  {7b90cd1f-fcfa-4a76-838e-1eff34bc40d1}, !- Schedule Type Limits Name
  ,                                       !- Interpolate to Timestep
  24,                                     !- Hour 1
  0,                                      !- Minute 1
  1.3;                                    !- Value Until Time 1

OS:Schedule:Ruleset,
  {b1f22b94-a1ce-44be-b6fa-91464b684049}, !- Handle
  0900|2000|AutoSales|default|infiltration, !- Name
  {c131d3fe-9319-4d3a-9b0b-0990fe3c2786}, !- Schedule Type Limits Name
  {a5385fbd-ee0f-488f-b149-d65c444a399a}, !- Default Day Schedule Name
  {919b748d-8bbb-4ba7-8b9a-8f0eb69ee4be}, !- Summer Design Day Schedule Name
  {2fbd143b-2b96-4193-96b3-87e5a9d1354f}; !- Winter Design Day Schedule Name

OS:Schedule:Day,
  {a5385fbd-ee0f-488f-b149-d65c444a399a}, !- Handle
  0900|2000|AutoSales|default|infiltration |default, !- Name
  {c131d3fe-9319-4d3a-9b0b-0990fe3c2786}, !- Schedule Type Limits Name
  ,                                       !- Interpolate to Timestep
  1,                                      !- Hour 1
  0,                                      !- Minute 1
  1,                                      !- Value Until Time 1
  7,                                      !- Hour 2
  0,                                      !- Minute 2
  0.25,                                   !- Value Until Time 2
  24,                                     !- Hour 3
  0,                                      !- Minute 3
  1;                                      !- Value Until Time 3

OS:Schedule:Day,
  {919b748d-8bbb-4ba7-8b9a-8f0eb69ee4be}, !- Handle
  0900|2000|AutoSales|default|infiltration Summer Design Day, !- Name
  {c131d3fe-9319-4d3a-9b0b-0990fe3c2786}, !- Schedule Type Limits Name
  ,                                       !- Interpolate to Timestep
  1,                                      !- Hour 1
  0,                                      !- Minute 1
  1,                                      !- Value Until Time 1
  7,                                      !- Hour 2
  0,                                      !- Minute 2
  0.25,                                   !- Value Until Time 2
  24,                                     !- Hour 3
  0,                                      !- Minute 3
  1;                                      !- Value Until Time 3

OS:Schedule:Day,
  {2fbd143b-2b96-4193-96b3-87e5a9d1354f}, !- Handle
  0900|2000|AutoSales|default|infiltration Winter Design Day, !- Name
  {c131d3fe-9319-4d3a-9b0b-0990fe3c2786}, !- Schedule Type Limits Name
  ,                                       !- Interpolate to Timestep
  1,                                      !- Hour 1
  0,                                      !- Minute 1
  1,                                      !- Value Until Time 1
  7,                                      !- Hour 2
  0,                                      !- Minute 2
  0.25,                                   !- Value Until Time 2
  24,                                     !- Hour 3
  0,                                      !- Minute 3
  1;                                      !- Value Until Time 3

OS:Schedule:Rule,
  {469cc99e-dbc4-4a63-9776-3390d998cdf8}, !- Handle
  0900|2000|AutoSales|default|infiltration |1/1-12/31|Sun Rule, !- Name
  {b1f22b94-a1ce-44be-b6fa-91464b684049}, !- Schedule Ruleset Name
  0,                                      !- Rule Order
  {8c19e4b1-9434-4319-80b2-631ec62d06f8}, !- Day Schedule Name
  Yes,                                    !- Apply Sunday
  ,                                       !- Apply Monday
  ,                                       !- Apply Tuesday
  ,                                       !- Apply Wednesday
  ,                                       !- Apply Thursday
  ,                                       !- Apply Friday
  ,                                       !- Apply Saturday
  ,                                       !- Apply Holiday
  DateRange,                              !- Date Specification Type
  1,                                      !- Start Month
  1,                                      !- Start Day
  12,                                     !- End Month
  31;                                     !- End Day

OS:Schedule:Day,
  {8c19e4b1-9434-4319-80b2-631ec62d06f8}, !- Handle
  0900|2000|AutoSales|default|infiltration |1/1-12/31|Sun, !- Name
  {c131d3fe-9319-4d3a-9b0b-0990fe3c2786}, !- Schedule Type Limits Name
  ,                                       !- Interpolate to Timestep
  24,                                     !- Hour 1
  0,                                      !- Minute 1
  1;                                      !- Value Until Time 1

OS:Schedule:Rule,
  {4630baa5-e8c9-4c38-be30-dd377ffb799a}, !- Handle
  0900|2000|AutoSales|default|infiltration |1/1-12/31|Sat Rule, !- Name
  {b1f22b94-a1ce-44be-b6fa-91464b684049}, !- Schedule Ruleset Name
  1,                                      !- Rule Order
  {ba8a1716-793c-4d14-a8ba-04e1ef29d237}, !- Day Schedule Name
  ,                                       !- Apply Sunday
  ,                                       !- Apply Monday
  ,                                       !- Apply Tuesday
  ,                                       !- Apply Wednesday
  ,                                       !- Apply Thursday
  ,                                       !- Apply Friday
  Yes,                                    !- Apply Saturday
  ,                                       !- Apply Holiday
  DateRange,                              !- Date Specification Type