
OS:Version,
  {b2e4bdbc-1adc-4044-9fbd-4b5506281e1e}, !- Handle
  1.6.0;                                  !- Version Identifier

OS:ClimateZones,
  {135edfab-17e7-40db-a436-27d385a8cd6d}, !- Handle
  ,                                       !- Active Institution
  ,                                       !- Active Year
  ASHRAE,                                 !- Climate Zone Institution Name 1
  ANSI/ASHRAE Standard 169,               !- Climate Zone Document Name 1
  2006,                                   !- Climate Zone Document Year 1
  ,                                       !- Climate Zone Value 1
  CEC,                                    !- Climate Zone Institution Name 2
  California Climate Zone Descriptions,   !- Climate Zone Document Name 2
  1995,                                   !- Climate Zone Document Year 2
  ;                                       !- Climate Zone Value 2

OS:YearDescription,
  {513d8dda-86cb-442a-b01c-1f7f0e0ac70e}; !- Handle

OS:RadianceParameters,
  {270a96f1-3c86-4b75-a667-cdf22790e2c8}, !- Handle
  1,                                      !- Accumulated Rays per Record
  0,                                      !- Direct Threshold
  1,                                      !- Direct Certainty
  1,                                      !- Direct Jitter
  1,                                      !- Direct Pretest
  6,                                      !- Ambient Bounces VMX
  2,                                      !- Ambient Bounces DMX
  4050,                                   !- Ambient Divisions VMX
  512,                                    !- Ambient Divisions DMX
  256,                                    !- Ambient Supersamples
  0.001,                                  !- Limit Weight VMX
  0.001,                                  !- Limit Weight DMX
  500,                                    !- Klems Sampling Density
  146;                                    !- Sky Discretization Resolution

OS:SimulationControl,
  {2c487a4c-bac9-4ac5-b669-1e49d9da7c2b}, !- Handle
  ,                                       !- Do Zone Sizing Calculation
  ,                                       !- Do System Sizing Calculation
  ,                                       !- Do Plant Sizing Calculation
  No,                                     !- Run Simulation for Sizing Periods
  ,                                       !- Run Simulation for Weather File Run Periods
  0.04,                                   !- Loads Convergence Tolerance Value
  ,                                       !- Temperature Convergence Tolerance Value {deltaC}
  ,                                       !- Solar Distribution
  ,                                       !- Maximum Number of Warmup Days
  2;                                      !- Minimum Number of Warmup Days

OS:Sizing:Parameters,
  {dde5af6f-7923-4600-a28a-7556673a0266}, !- Handle
  1.25,                                   !- Heating Sizing Factor
  1.15;                                   !- Cooling Sizing Factor

OS:ProgramControl,
  {05027a99-f2b3-4aeb-afc6-1425fbb4371d}; !- Handle

OS:Timestep,
  {4ebc9f1e-4707-402e-9844-67eb1ffbd522}, !- Handle
  2;                                      !- Number of Timesteps per Hour

OS:OutputControl:ReportingTolerances,
  {65797aa2-06a9-45fe-b69d-bc6e060399d3}; !- Handle

OS:ConvergenceLimits,
  {9fc11aba-8822-4f3d-970c-46391ba4040d}; !- Handle

OS:ShadowCalculation,
  {ca758bea-4416-4626-9bba-3d8795c79bd6}, !- Handle
  7,                                      !- Calculation Frequency
  15000;                                  !- Maximum Figures in Shadow Overlap Calculations

OS:SurfaceConvectionAlgorithm:Inside,
  {aaabfc36-718a-4ab0-b622-f186ebb45230}, !- Handle
  TARP;                                   !- Algorithm

OS:SurfaceConvectionAlgorithm:Outside,
  {9a0a9f6f-4bbd-4b12-a121-9492a1fcd7d6}, !- Handle
  DOE-2;                                  !- Algorithm

OS:HeatBalanceAlgorithm,
  {9d93e563-e1e0-46d7-9e39-d1c8aceb7212}, !- Handle
  ConductionTransferFunction,             !- Algorithm
  200;                                    !- Surface Temperature Upper Limit {F}

OS:ZoneAirHeatBalanceAlgorithm,
  {8520d93e-310f-4696-9bcd-36228bfdd743}, !- Handle
  AnalyticalSolution;                     !- Algorithm

OS:ZoneAirContaminantBalance,
  {eb5fc3ae-fb22-4160-8fcb-3e3b22b000d3}; !- Handle

OS:ZoneCapacitanceMultiplier:ResearchSpecial,
  {4020ce4f-5a7a-4849-8028-8305d7b751b1}, !- Handle
  ,                                       !- Temperature Capacity Multiplier
  ,                                       !- Humidity Capacity Multiplier
  ;                                       !- Carbon Dioxide Capacity Multiplier

OS:RunPeriod,
  {28df894d-6af9-4fb8-8f56-df1753344aa3}, !- Handle
  Run Period 1,                           !- Name
  1,                                      !- Begin Month
  1,                                      !- Begin Day of Month
  12,                                     !- End Month
  31,                                     !- End Day of Month
  ,                                       !- Use Weather File Holidays and Special Days
  ,                                       !- Use Weather File Daylight Saving Period
  ,                                       !- Apply Weekend Holiday Rule
  ,                                       !- Use Weather File Rain Indicators
  ,                                       !- Use Weather File Snow Indicators
  ;                                       !- Number of Times Runperiod to be Repeated

OS:Building,
  {bf305633-c5a1-4881-9edf-ca5e1a8e1274}, !- Handle
  Building 1,                             !- Name
  ,                                       !- Building Sector Type
  ,                                       !- North Axis {deg}
  ,                                       !- Nominal Floor to Floor Height {m}
  ,                                       !- Space Type Name
  ,                                       !- Default Construction Set Name
  {b214cd3c-0fd1-435e-aeef-282df4d63fde}, !- Default Schedule Set Name
  ,                                       !- Standards Number of Stories
  ,                                       !- Standards Number of Above Ground Stories
  AutoSales;                              !- Standards Building Type

OS:LifeCycleCost:Parameters,
  {231cf8a0-f0e7-4251-a99f-11f0d464e661}, !- Handle
  FEMP,                                   !- Analysis Type
  ,                                       !- Discounting Convention
  ,                                       !- Inflation Approach
  ,                                       !- Real Discount Rate
  ,                                       !- Nominal Discount Rate
  ,                                       !- Inflation
  ,                                       !- Base Date Month
  ,                                       !- Base Date Year
  ,                                       !- Service Date Month
  ,                                       !- Service Date Year
  ,                                       !- Length of Study Period in Years
  ,                                       !- Tax Rate
  ,                                       !- Depreciation Method
  Yes;                                    !- Use NIST Fuel Escalation Rates

OS:Facility,
  {3ba8e45b-b833-44eb-a723-ea6c3946dc96}; !- Handle

OS:SpaceType,
  {460df2f5-d8aa-4332-8c5a-2a710d8d2fb6}, !- Handle
  AutoSales|BlendFront|DOE Ref Pre-1980|ASHRAE 169-2006-5A, !- Name
  {3857af8f-8392-426b-9b5e-fd8cc6c90587}, !- Default Construction Set Name
  ,                                       !- Default Schedule Set Name
  {e1b06c18-4b16-40fb-826f-1de795a5ddd7}, !- Group Rendering Name
  {1d1bdcda-52cc-433b-a82f-749c1deb1443}, !- Design Specification Outdoor Air Object Name
  AutoSales,                              !- Standards Building Type
  BlendFront;                             !- Standards Space Type

OS:Rendering:Color,
  {e1b06c18-4b16-40fb-826f-1de795a5ddd7}, !- Handle
  Rendering Color 1,                      !- Name
  120,                                    !- Rendering Red Value
  120,                                    !- Rendering Green Value
  120;                                    !- Rendering Blue Value

OS:SpaceType,
  {20dcc941-2a4c-4532-9135-103c31e57f7b}, !- Handle
  AutoSales|Garage|DOE Ref Pre-1980|ASHRAE 169-2006-5A, !- Name
  {3857af8f-8392-426b-9b5e-fd8cc6c90587}, !- Default Construction Set Name
  {15c05a73-a955-4e38-871c-828cfa9c973f}, !- Default Schedule Set Name
  {c5165d4c-3334-4425-ac83-eb1f4aaf096d}, !- Group Rendering Name
  {20a7d4ab-289c-4920-bd01-6f8c5aad34dd}, !- Design Specification Outdoor Air Object Name
  AutoSales,                              !- Standards Building Type
  Garage;                                 !- Standards Space Type

OS:Rendering:Color,
  {c5165d4c-3334-4425-ac83-eb1f4aaf096d}, !- Handle
  Rendering Color 2,                      !- Name
  120,                                    !- Rendering Red Value
  120,                                    !- Rendering Green Value
  120;                                    !- Rendering Blue Value

OS:SpaceType,
  {80e0bf81-32a9-46ce-9889-0fd6f29c0c1c}, !- Handle
  AutoSales|Restroom|DOE Ref Pre-1980|ASHRAE 169-2006-5A, !- Name
  {3857af8f-8392-426b-9b5e-fd8cc6c90587}, !- Default Construction Set Name
  {b257116b-df72-4c32-8482-5379495bfc62}, !- Default Schedule Set Name
  {20904412-2042-48b7-9b87-8b4fb8e53681}, !- Group Rendering Name
  {54103a02-8873-4c5f-bef1-2081a2c9b0fc}, !- Design Specification Outdoor Air Object Name
  AutoSales,                              !- Standards Building Type
  Restroom;                               !- Standards Space Type

OS:Rendering:Color,
  {20904412-2042-48b7-9b87-8b4fb8e53681}, !- Handle
  Rendering Color 3,                      !- Name
  169,                                    !- Rendering Red Value
  169,                                    !- Rendering Green Value
  31;                                     !- Rendering Blue Value

OS:Schedule:Ruleset,
  {652c701c-e3ee-4bb5-b067-98a352f7d849}, !- Handle
  0900|2000|AutoSales|default|hoo,        !- Name
  {1e517ed3-ab94-4e7d-8a0c-cad035827478}, !- Schedule Type Limits Name
  {9c5e4958-7aa4-4a33-91b7-29db7a023a6c}, !- Default Day Schedule Name
  {bf5c3657-bac3-41b3-83c9-5b5a965a14f0}, !- Summer Design Day Schedule Name
  {df8be25e-4397-4284-b285-a3337b24846f}; !- Winter Design Day Schedule Name

OS:Schedule:Day,
  {9c5e4958-7aa4-4a33-91b7-29db7a023a6c}, !- Handle
  0900|2000|AutoSales|default|hoo Schedule Week Day, !- Name
  {1e517ed3-ab94-4e7d-8a0c-cad035827478}, !- Schedule Type Limits Name
  ,                                       !- Interpolate to Timestep
  9,                                      !- Hour 1
  0,                                      !- Minute 1
  0,                                      !- Value Until Time 1
  20,                                     !- Hour 2
  0,                                      !- Minute 2
  1,                                      !- Value Until Time 2
  24,                                     !- Hour 3
  0,                                      !- Minute 3
  0;                                      !- Value Until Time 3

OS:Schedule:Day,
  {47298994-4075-4600-a589-7a7ce0b15cfe}, !- Handle
  Schedule Day 2,                         !- Name
  ,                                       !- Schedule Type Limits Name
  ,                                       !- Interpolate to Timestep
  24,                                     !- Hour 1
  0,                                      !- Minute 1
  0;                                      !- Value Until Time 1

OS:Schedule:Day,
  {df8be25e-4397-4284-b285-a3337b24846f}, !- Handle
  0900|2000|AutoSales|default|hoo Winter Design Day, !- Name
  {1e517ed3-ab94-4e7d-8a0c-cad035827478}, !- Schedule Type Limits Name
  ,                                       !- Interpolate to Timestep
  24,                                     !- Hour 1
  0,                                      !- Minute 1
  0;                                      !- Value Until Time 1

OS:Schedule:Day,
  {b41adb22-0615-4ce0-847d-8e5bda1c28c9}, !- Handle
  Schedule Day 3,                         !- Name
  ,                                       !- Schedule Type Limits Name
  ,                                       !- Interpolate to Timestep
  24,                                     !- Hour 1
  0,                                      !- Minute 1
  0;                                      !- Value Until Time 1

OS:Schedule:Day,
  {bf5c3657-bac3-41b3-83c9-5b5a965a14f0}, !- Handle
  0900|2000|AutoSales|default|hoo Summer Design Day, !- Name
  {1e517ed3-ab94-4e7d-8a0c-cad035827478}, !- Schedule Type Limits Name
  ,                                       !- Interpolate to Timestep
  24,                                     !- Hour 1
  0,                                      !- Minute 1
  1;                                      !- Value Until Time 1

OS:DefaultScheduleSet,
  {b214cd3c-0fd1-435e-aeef-282df4d63fde}, !- Handle
  Building Hours of Operation,            !- Name
  {652c701c-e3ee-4bb5-b067-98a352f7d849}, !- Hours of Operation Schedule Name
  ,                                       !- Number of People Schedule Name
  ,                                       !- People Activity Level Schedule Name
  ,                                       !- Lighting Schedule Name
  ,                                       !- Electric Equipment Schedule Name
  ,                                       !- Gas Equipment Schedule Name
  ,                                       !- Hot Water Equipment Schedule Name
  ,                                       !- Infiltration Schedule Name
  ,                                       !- Steam Equipment Schedule Name
  ;                                       !- Other Equipment Schedule Name

OS:ScheduleTypeLimits,
  {1e517ed3-ab94-4e7d-8a0c-cad035827478}, !- Handle
  OnOff,                                  !- Name
  0,                                      !- Lower Limit Value {BasedOnField A4}
  1,                                      !- Upper Limit Value {BasedOnField A4}
  Discrete,                               !- Numeric Type
  Availability;                           !- Unit Type

OS:Schedule:Ruleset,
  {1d9993d5-2ecd-40c3-a5b3-8f951baf504f}, !- Handle
  0900|2000|AutoSales|default|rh,         !- Name
  {5207e14d-0a33-4fab-9e80-4e81dc6796d6}, !- Schedule Type Limits Name
  {499ea53d-b478-4ea8-bf37-70e332179b51}, !- Default Day Schedule Name
  {608489e0-6b40-4346-aa13-52db3c1703e8}, !- Summer Design Day Schedule Name
  {7eff382c-6604-4963-8094-2cfdcd4a4df0}; !- Winter Design Day Schedule Name

OS:ScheduleTypeLimits,
  {5207e14d-0a33-4fab-9e80-4e81dc6796d6}, !- Handle
  Dimensionless Schedule Type Limits,     !- Name
  ,                                       !- Lower Limit Value {BasedOnField A4}
  ,                                       !- Upper Limit Value {BasedOnField A4}
  Continuous,                             !- Numeric Type
  Dimensionless;                          !- Unit Type

OS:Schedule:Day,
  {499ea53d-b478-4ea8-bf37-70e332179b51}, !- Handle
  0900|2000|AutoSales|default|rh |default, !- Name
  {5207e14d-0a33-4fab-9e80-4e81dc6796d6}, !- Schedule Type Limits Name
  ,                                       !- Interpolate to Timestep
  24,                                     !- Hour 1
  0,                                      !- Minute 1
  50;                                     !- Value Until Time 1

OS:Schedule:Day,
  {608489e0-6b40-4346-aa13-52db3c1703e8}, !- Handle
  0900|2000|AutoSales|default|rh Summer Design Day, !- Name
  {5207e14d-0a33-4fab-9e80-4e81dc6796d6}, !- Schedule Type Limits Name
  ,                                       !- Interpolate to Timestep
  24,                                     !- Hour 1
  0,                                      !- Minute 1
  50;                                     !- Value Until Time 1

OS:Schedule:Day,
  {7eff382c-6604-4963-8094-2cfdcd4a4df0}, !- Handle
  0900|2000|AutoSales|default|rh Winter Design Day, !- Name
  {5207e14d-0a33-4fab-9e80-4e81dc6796d6}, !- Schedule Type Limits Name
  ,                                       !- Interpolate to Timestep
  24,                                     !- Hour 1
  0,                                      !- Minute 1
  50;                                     !- Value Until Time 1

OS:Schedule:Ruleset,
  {1803d2e5-4616-400e-9f15-686689272100}, !- Handle
  0900|2000|AutoSales|default|htg_setpoint, !- Name
  {c8d3e3c0-5534-41fd-938e-04104fb1c55e}, !- Schedule Type Limits Name
  {7ecd3412-7858-4743-b321-f07b8588caa8}, !- Default Day Schedule Name
  {4cffe874-cdd2-48d5-8f34-0a7797670943}, !- Summer Design Day Schedule Name
  {83414109-2e65-4890-a862-4a9214122bfa}; !- Winter Design Day Schedule Name

OS:ScheduleTypeLimits,
  {c8d3e3c0-5534-41fd-938e-04104fb1c55e}, !- Handle
  Thermostat Heating Setpoint Schedule Type Limits, !- Name
  0,                                      !- Lower Limit Value {BasedOnField A4}
  100,                                    !- Upper Limit Value {BasedOnField A4}
  Continuous,                             !- Numeric Type
  Temperature;                            !- Unit Type

OS:Schedule:Day,
  {7ecd3412-7858-4743-b321-f07b8588caa8}, !- Handle
  0900|2000|AutoSales|default|htg_setpoint |default, !- Name
  {c8d3e3c0-5534-41fd-938e-04104fb1c55e}, !- Schedule Type Limits Name
  ,                                       !- Interpolate to Timestep
  24,                                     !- Hour 1
  0,                                      !- Minute 1
  21.0000000000001;                       !- Value Until Time 1

OS:Schedule:Day,
  {4cffe874-cdd2-48d5-8f34-0a7797670943}, !- Handle
  0900|2000|AutoSales|default|htg_setpoint Summer Design Day, !- Name
  {c8d3e3c0-5534-41fd-938e-04104fb1c55e}, !- Schedule Type Limits Name
  ,                                       !- Interpolate to Timestep
  24,                                     !- Hour 1
  0,                                      !- Minute 1
  21.0000000000001;                       !- Value Until Time 1

OS:Schedule:Day,
  {83414109-2e65-4890-a862-4a9214122bfa}, !- Handle
  0900|2000|AutoSales|default|htg_setpoint Winter Design Day, !- Name
  {c8d3e3c0-5534-41fd-938e-04104fb1c55e}, !- Schedule Type Limits Name
  ,                                       !- Interpolate to Timestep
  24,                                     !- Hour 1
  0,                                      !- Minute 1
  21.0000000000001;                       !- Value Until Time 1

OS:Schedule:Rule,
  {b42b6972-c20a-43c6-baec-ee8fc3b50ecd}, !- Handle
  0900|2000|AutoSales|default|htg_setpoint |1/1-12/31|Sun Rule, !- Name
  {1803d2e5-4616-400e-9f15-686689272100}, !- Schedule Ruleset Name
  0,                                      !- Rule Order
  {229b8cf4-80ef-46f3-9fe5-2fca5bab84e5}, !- Day Schedule Name
  Yes,                                    !- Apply Sunday
  ,                                       !- Apply Monday
  ,                                       !- Apply Tuesday
  ,                                       !- Apply Wednesday
  ,                                       !- Apply Thursday
  ,                                       !- Apply Friday
  ,                                       !- Apply Saturday
  ,                                       !- Apply Holiday
  DateRange,                              !- Date Specification Type
  1,                                      !- Start Month
  1,                                      !- Start Day
  12,                                     !- End Month
  31;                                     !- End Day

OS:Schedule:Day,
  {229b8cf4-80ef-46f3-9fe5-2fca5bab84e5}, !- Handle
  0900|2000|AutoSales|default|htg_setpoint |1/1-12/31|Sun, !- Name
  {c8d3e3c0-5534-41fd-938e-04104fb1c55e}, !- Schedule Type Limits Name
  ,                                       !- Interpolate to Timestep
  24,                                     !- Hour 1
  0,                                      !- Minute 1
  21.0000000000001;                       !- Value Until Time 1

OS:Schedule:Rule,
  {b533300e-1981-4cb7-8b39-22623699f800}, !- Handle
  0900|2000|AutoSales|default|htg_setpoint |1/1-12/31|Sat Rule, !- Name
  {1803d2e5-4616-400e-9f15-686689272100}, !- Schedule Ruleset Name
  1,                                      !- Rule Order
  {a9387fc1-73aa-4147-a3c4-cfa60c8afc5f}, !- Day Schedule Name
  ,                                       !- Apply Sunday
  ,                                       !- Apply Monday
  ,                                       !- Apply Tuesday
  ,                                       !- Apply Wednesday
  ,                                       !- Apply Thursday
  ,                                       !- Apply Friday
  Yes,                                    !- Apply Saturday
  ,                                       !- Apply Holiday
  DateRange,                              !- Date Specification Type
  1,                                      !- Start Month
  1,                                      !- Start Day
  12,                                     !- End Month
  31;                                     !- End Day

OS:Schedule:Day,
  {a9387fc1-73aa-4147-a3c4-cfa60c8afc5f}, !- Handle
  0900|2000|AutoSales|default|htg_setpoint |1/1-12/31|Sat, !- Name
  {c8d3e3c0-5534-41fd-938e-04104fb1c55e}, !- Schedule Type Limits Name
  ,                                       !- Interpolate to Timestep
  24,                                     !- Hour 1
  0,                                      !- Minute 1
  21.0000000000001;                       !- Value Until Time 1

OS:Schedule:Ruleset,
  {1b5e499a-a254-44c2-b2ed-6f702487d6d8}, !- Handle
  0900|2000|AutoSales|Garage|clg_setpoint, !- Name
  {ec185d03-2035-4394-a437-6f4445e32d6a}, !- Schedule Type Limits Name
  {cfe42e3d-036b-48b8-8a22-24d067f68baf}, !- Default Day Schedule Name
  {8625ea47-1bd0-4e3e-878e-9b99c0581947}, !- Summer Design Day Schedule Name
  {5de3dd0e-3243-4b20-85d1-397c6178c540}; !- Winter Design Day Schedule Name

OS:ScheduleTypeLimits,
  {ec185d03-2035-4394-a437-6f4445e32d6a}, !- Handle
  Thermostat Cooling Setpoint Schedule Type Limits, !- Name
  0,                                      !- Lower Limit Value {BasedOnField A4}
  100,                                    !- Upper Limit Value {BasedOnField A4}
  Continuous,                             !- Numeric Type
  Temperature;                            !- Unit Type

OS:Schedule:Day,
  {cfe42e3d-036b-48b8-8a22-24d067f68baf}, !- Handle
  0900|2000|AutoSales|Garage|clg_setpoint |default, !- Name
  {ec185d03-2035-4394-a437-6f4445e32d6a}, !- Schedule Type Limits Name
  ,                                       !- Interpolate to Timestep
  24,                                     !- Hour 1
  0,                                      !- Minute 1
  26.6666666666667;                       !- Value Until Time 1

OS:Schedule:Day,
  {8625ea47-1bd0-4e3e-878e-9b99c0581947}, !- Handle
  0900|2000|AutoSales|Garage|clg_setpoint Summer Design Day, !- Name
  {ec185d03-2035-4394-a437-6f4445e32d6a}, !- Schedule Type Limits Name
  ,                                       !- Interpolate to Timestep
  24,                                     !- Hour 1
  0,                                      !- Minute 1
  26.6666666666667;                       !- Value Until Time 1

OS:Schedule:Day,
  {5de3dd0e-3243-4b20-85d1-397c6178c540}, !- Handle
  0900|2000|AutoSales|Garage|clg_setpoint Winter Design Day, !- Name
  {ec185d03-2035-4394-a437-6f4445e32d6a}, !- Schedule Type Limits Name
  ,                                       !- Interpolate to Timestep
  24,                                     !- Hour 1
  0,                                      !- Minute 1
  26.6666666666667;                       !- Value Until Time 1

OS:Schedule:Rule,
  {ba667558-f058-4b62-85e9-e1dae90d87ce}, !- Handle
  0900|2000|AutoSales|Garage|clg_setpoint |1/1-12/31|Sun Rule, !- Name
  {1b5e499a-a254-44c2-b2ed-6f702487d6d8}, !- Schedule Ruleset Name
  0,                                      !- Rule Order
  {8b50d58d-11fb-4a5b-9481-21c2084a87d5}, !- Day Schedule Name
  Yes,                                    !- Apply Sunday
  ,                                       !- Apply Monday
  ,                                       !- Apply Tuesday
  ,                                       !- Apply Wednesday
  ,                                       !- Apply Thursday
  ,                                       !- Apply Friday
  ,                                       !- Apply Saturday
  ,                                       !- Apply Holiday
  DateRange,                              !- Date Specification Type
  1,                                      !- Start Month
  1,                                      !- Start Day
  12,                                     !- End Month
  31;                                     !- End Day

OS:Schedule:Day,
  {8b50d58d-11fb-4a5b-9481-21c2084a87d5}, !- Handle
  0900|2000|AutoSales|Garage|clg_setpoint |1/1-12/31|Sun, !- Name
  {ec185d03-2035-4394-a437-6f4445e32d6a}, !- Schedule Type Limits Name
  ,                                       !- Interpolate to Timestep
  24,                                     !- Hour 1
  0,                                      !- Minute 1
  26.6666666666667;                       !- Value Until Time 1

OS:Schedule:Rule,
  {2314dbe5-519b-4b52-86cd-223d9aca2f41}, !- Handle
  0900|2000|AutoSales|Garage|clg_setpoint |1/1-12/31|Sat Rule, !- Name
  {1b5e499a-a254-44c2-b2ed-6f702487d6d8}, !- Schedule Ruleset Name
  1,                                      !- Rule Order
  {3d5e0a80-0a82-4182-9fba-e8c0e9a76a0f}, !- Day Schedule Name
  ,                                       !- Apply Sunday
  ,                                       !- Apply Monday
  ,                                       !- Apply Tuesday
  ,                                       !- Apply Wednesday
  ,                                       !- Apply Thursday
  ,                                       !- Apply Friday
  Yes,                                    !- Apply Saturday
  ,                                       !- Apply Holiday
  DateRange,                              !- Date Specification Type
  1,                                      !- Start Month
  1,                                      !- Start Day
  12,                                     !- End Month
  31;                                     !- End Day

OS:Schedule:Day,
  {3d5e0a80-0a82-4182-9fba-e8c0e9a76a0f}, !- Handle
  0900|2000|AutoSales|Garage|clg_setpoint |1/1-12/31|Sat, !- Name
  {ec185d03-2035-4394-a437-6f4445e32d6a}, !- Schedule Type Limits Name
  ,                                       !- Interpolate to Timestep
  24,                                     !- Hour 1
  0,                                      !- Minute 1
  26.6666666666667;                       !- Value Until Time 1

OS:Schedule:Ruleset,
  {666132a7-3563-41f2-8855-7414451e5ae3}, !- Handle
  0900|2000|AutoSales|default|thermal_ctrl, !- Name
  {5207e14d-0a33-4fab-9e80-4e81dc6796d6}, !- Schedule Type Limits Name
  {817cb65e-24c3-496d-af3b-4141745e7325}, !- Default Day Schedule Name
  {48a8718f-f8c7-483d-b53c-0643b4a58817}, !- Summer Design Day Schedule Name
  {e0bfbf10-5226-48c2-a560-dc62ae838ce9}; !- Winter Design Day Schedule Name

OS:Schedule:Day,
  {817cb65e-24c3-496d-af3b-4141745e7325}, !- Handle
  0900|2000|AutoSales|default|thermal_ctrl |default, !- Name
  {5207e14d-0a33-4fab-9e80-4e81dc6796d6}, !- Schedule Type Limits Name
  ,                                       !- Interpolate to Timestep
  24,                                     !- Hour 1
  0,                                      !- Minute 1
  4;                                      !- Value Until Time 1

OS:Schedule:Day,
  {48a8718f-f8c7-483d-b53c-0643b4a58817}, !- Handle
  0900|2000|AutoSales|default|thermal_ctrl Summer Design Day, !- Name
  {5207e14d-0a33-4fab-9e80-4e81dc6796d6}, !- Schedule Type Limits Name
  ,                                       !- Interpolate to Timestep
  24,                                     !- Hour 1
  0,                                      !- Minute 1
  4;                                      !- Value Until Time 1

OS:Schedule:Day,
  {e0bfbf10-5226-48c2-a560-dc62ae838ce9}, !- Handle
  0900|2000|AutoSales|default|thermal_ctrl Winter Design Day, !- Name
  {5207e14d-0a33-4fab-9e80-4e81dc6796d6}, !- Schedule Type Limits Name
  ,                                       !- Interpolate to Timestep
  24,                                     !- Hour 1
  0,                                      !- Minute 1
  4;                                      !- Value Until Time 1

OS:Schedule:Ruleset,
  {0268e87d-e8cb-4a52-b461-b4efe43bc4ce}, !- Handle
  0900|2000|AutoSales|default|elec_equip, !- Name
  {cf158b28-7de2-408c-a83d-d2ff932e46b0}, !- Schedule Type Limits Name
  {3224fcdb-6b17-4717-931b-364c0f17a14e}, !- Default Day Schedule Name
  {dff35d15-0828-40a5-aee9-5e532a47b60a}, !- Summer Design Day Schedule Name
  {7b3085e3-b5f6-4bc9-ac99-aabbfa6b4c21}; !- Winter Design Day Schedule Name

OS:ScheduleTypeLimits,
  {cf158b28-7de2-408c-a83d-d2ff932e46b0}, !- Handle
  Equipment Schedule Type Limits,         !- Name
  0,                                      !- Lower Limit Value {BasedOnField A4}
  1,                                      !- Upper Limit Value {BasedOnField A4}
  Continuous,                             !- Numeric Type
  Dimensionless;                          !- Unit Type

OS:Schedule:Day,
  {3224fcdb-6b17-4717-931b-364c0f17a14e}, !- Handle
  0900|2000|AutoSales|default|elec_equip |default, !- Name
  {cf158b28-7de2-408c-a83d-d2ff932e46b0}, !- Schedule Type Limits Name
  ,                                       !- Interpolate to Timestep
  0,                                      !- Hour 1
  30,                                     !- Minute 1
  0.79,                                   !- Value Until Time 1
  1,                                      !- Hour 2
  0,                                      !- Minute 2