
OS:Version,
  {029824cb-87dc-4c97-8b7a-2030b8ac36f4}, !- Handle
  1.5.5;                                  !- Version Identifier

OS:ClimateZones,
  {135edfab-17e7-40db-a436-27d385a8cd6d}, !- Handle
  ,                                       !- Active Institution
  ,                                       !- Active Year
  ASHRAE,                                 !- Climate Zone Institution Name 1
  ANSI/ASHRAE Standard 169,               !- Climate Zone Document Name 1
  2006,                                   !- Climate Zone Document Year 1
  ,                                       !- Climate Zone Value 1
  CEC,                                    !- Climate Zone Institution Name 2
  California Climate Zone Descriptions,   !- Climate Zone Document Name 2
  1995,                                   !- Climate Zone Document Year 2
  ;                                       !- Climate Zone Value 2

OS:YearDescription,
  {513d8dda-86cb-442a-b01c-1f7f0e0ac70e}; !- Handle

OS:RadianceParameters,
  {270a96f1-3c86-4b75-a667-cdf22790e2c8}, !- Handle
  1,                                      !- Accumulated Rays per Record
  0,                                      !- Direct Threshold
  1,                                      !- Direct Certainty
  1,                                      !- Direct Jitter
  1,                                      !- Direct Pretest
  6,                                      !- Ambient Bounces VMX
  2,                                      !- Ambient Bounces DMX
  4050,                                   !- Ambient Divisions VMX
  512,                                    !- Ambient Divisions DMX
  256,                                    !- Ambient Supersamples
  0.001,                                  !- Limit Weight VMX
  0.001,                                  !- Limit Weight DMX
  500,                                    !- Klems Sampling Density
  146;                                    !- Sky Discretization Resolution

OS:SimulationControl,
  {2c487a4c-bac9-4ac5-b669-1e49d9da7c2b}, !- Handle
  ,                                       !- Do Zone Sizing Calculation
  ,                                       !- Do System Sizing Calculation
  ,                                       !- Do Plant Sizing Calculation
  No,                                     !- Run Simulation for Sizing Periods
  ,                                       !- Run Simulation for Weather File Run Periods
  0.04,                                   !- Loads Convergence Tolerance Value
  ,                                       !- Temperature Convergence Tolerance Value {deltaC}
  ,                                       !- Solar Distribution
  ,                                       !- Maximum Number of Warmup Days
  2;                                      !- Minimum Number of Warmup Days

OS:Sizing:Parameters,
  {dde5af6f-7923-4600-a28a-7556673a0266}, !- Handle
  1.25,                                   !- Heating Sizing Factor
  1.15;                                   !- Cooling Sizing Factor

OS:ProgramControl,
  {05027a99-f2b3-4aeb-afc6-1425fbb4371d}; !- Handle

OS:Timestep,
  {4ebc9f1e-4707-402e-9844-67eb1ffbd522}, !- Handle
  2;                                      !- Number of Timesteps per Hour

OS:OutputControl:ReportingTolerances,
  {65797aa2-06a9-45fe-b69d-bc6e060399d3}; !- Handle

OS:ConvergenceLimits,
  {9fc11aba-8822-4f3d-970c-46391ba4040d}; !- Handle

OS:ShadowCalculation,
  {ca758bea-4416-4626-9bba-3d8795c79bd6}, !- Handle
  7,                                      !- Calculation Frequency
  15000;                                  !- Maximum Figures in Shadow Overlap Calculations

OS:SurfaceConvectionAlgorithm:Inside,
  {aaabfc36-718a-4ab0-b622-f186ebb45230}, !- Handle
  TARP;                                   !- Algorithm

OS:SurfaceConvectionAlgorithm:Outside,
  {9a0a9f6f-4bbd-4b12-a121-9492a1fcd7d6}, !- Handle
  DOE-2;                                  !- Algorithm

OS:HeatBalanceAlgorithm,
  {9d93e563-e1e0-46d7-9e39-d1c8aceb7212}, !- Handle
  ConductionTransferFunction,             !- Algorithm
  200;                                    !- Surface Temperature Upper Limit {F}

OS:ZoneAirHeatBalanceAlgorithm,
  {8520d93e-310f-4696-9bcd-36228bfdd743}, !- Handle
  AnalyticalSolution;                     !- Algorithm

OS:ZoneAirContaminantBalance,
  {eb5fc3ae-fb22-4160-8fcb-3e3b22b000d3}; !- Handle

OS:ZoneCapacitanceMultiplier:ResearchSpecial,
  {4020ce4f-5a7a-4849-8028-8305d7b751b1}, !- Handle
  ,                                       !- Temperature Capacity Multiplier
  ,                                       !- Humidity Capacity Multiplier
  ;                                       !- Carbon Dioxide Capacity Multiplier

OS:RunPeriod,
  {28df894d-6af9-4fb8-8f56-df1753344aa3}, !- Handle
  Run Period 1,                           !- Name
  1,                                      !- Begin Month
  1,                                      !- Begin Day of Month
  12,                                     !- End Month
  31,                                     !- End Day of Month
  ,                                       !- Use Weather File Holidays and Special Days
  ,                                       !- Use Weather File Daylight Saving Period
  ,                                       !- Apply Weekend Holiday Rule
  ,                                       !- Use Weather File Rain Indicators
  ,                                       !- Use Weather File Snow Indicators
  ;                                       !- Number of Times Runperiod to be Repeated

OS:Building,
  {bf305633-c5a1-4881-9edf-ca5e1a8e1274}, !- Handle
  Building 1,                             !- Name
  ,                                       !- Building Sector Type
  ,                                       !- North Axis {deg}
  ,                                       !- Nominal Floor to Floor Height {m}
  ,                                       !- Space Type Name
  ,                                       !- Default Construction Set Name
  {ae12f794-58fc-4a59-9f10-7a3efc205a3a}, !- Default Schedule Set Name
  ,                                       !- Standards Number of Stories
  ,                                       !- Standards Number of Above Ground Stories
  AutoSales;                              !- Standards Building Type

OS:LifeCycleCost:Parameters,
  {231cf8a0-f0e7-4251-a99f-11f0d464e661}, !- Handle
  FEMP,                                   !- Analysis Type
  ,                                       !- Discounting Convention
  ,                                       !- Inflation Approach
  ,                                       !- Real Discount Rate
  ,                                       !- Nominal Discount Rate
  ,                                       !- Inflation
  ,                                       !- Base Date Month
  ,                                       !- Base Date Year
  ,                                       !- Service Date Month
  ,                                       !- Service Date Year
  ,                                       !- Length of Study Period in Years
  ,                                       !- Tax Rate
  ,                                       !- Depreciation Method
  Yes;                                    !- Use NIST Fuel Escalation Rates

OS:Facility,
  {3ba8e45b-b833-44eb-a723-ea6c3946dc96}; !- Handle

OS:SpaceType,
  {4444d9d5-c36b-4e18-b781-ecbc0da40278}, !- Handle
  AutoSales|BlendFront|DOE Ref 2004|ASHRAE 169-2006-5A, !- Name
  {5fb62b5b-8b41-4480-96ba-e3e260237d23}, !- Default Construction Set Name
  ,                                       !- Default Schedule Set Name
  {a2e66cd8-0251-4c85-ac88-c89214392799}, !- Group Rendering Name
  {8d2eead2-ad8a-4c65-bea4-ebf9cfd42c6d}, !- Design Specification Outdoor Air Object Name
  AutoSales,                              !- Standards Building Type
  BlendFront;                             !- Standards Space Type

OS:Rendering:Color,
  {a2e66cd8-0251-4c85-ac88-c89214392799}, !- Handle
  Rendering Color 1,                      !- Name
  120,                                    !- Rendering Red Value
  120,                                    !- Rendering Green Value
  120;                                    !- Rendering Blue Value

OS:SpaceType,
  {1d7a922b-20d9-47a4-b1f4-16b182bc1f3d}, !- Handle
  AutoSales|Garage|DOE Ref 2004|ASHRAE 169-2006-5A, !- Name
  {5fb62b5b-8b41-4480-96ba-e3e260237d23}, !- Default Construction Set Name
  {0fd4904d-77e6-4bce-86b3-e1ea5f284016}, !- Default Schedule Set Name
  {aefec98f-483b-4d11-a4c1-401a8b2c500e}, !- Group Rendering Name
  {eb3c748a-9985-49c7-8721-d17c50dfde68}, !- Design Specification Outdoor Air Object Name
  AutoSales,                              !- Standards Building Type
  Garage;                                 !- Standards Space Type

OS:Rendering:Color,
  {aefec98f-483b-4d11-a4c1-401a8b2c500e}, !- Handle
  Rendering Color 2,                      !- Name
  120,                                    !- Rendering Red Value
  120,                                    !- Rendering Green Value
  120;                                    !- Rendering Blue Value

OS:SpaceType,
  {b4db0080-3173-4706-9b1e-35df0b8a6657}, !- Handle
  AutoSales|Restroom|DOE Ref 2004|ASHRAE 169-2006-5A, !- Name
  {5fb62b5b-8b41-4480-96ba-e3e260237d23}, !- Default Construction Set Name
  {563fa937-c25e-4dc7-b1d7-0c4681c248d8}, !- Default Schedule Set Name
  {8e9604c8-5f0c-42e6-b333-cd9d38ae9549}, !- Group Rendering Name
  {1de642ef-7417-4ef6-a33d-2bc4d8f85517}, !- Design Specification Outdoor Air Object Name
  AutoSales,                              !- Standards Building Type
  Restroom;                               !- Standards Space Type

OS:Rendering:Color,
  {8e9604c8-5f0c-42e6-b333-cd9d38ae9549}, !- Handle
  Rendering Color 3,                      !- Name
  169,                                    !- Rendering Red Value
  169,                                    !- Rendering Green Value
  31;                                     !- Rendering Blue Value

OS:Schedule:Ruleset,
  {6e91b145-63cb-4352-b4b2-c38c009929aa}, !- Handle
  0900|2000|AutoSales|default|hoo,        !- Name
  {b3af2f02-8368-4385-8b27-b9b48d7a393f}, !- Schedule Type Limits Name
  {c51c8ed5-a9d5-46cd-9b43-d9646ee53d54}, !- Default Day Schedule Name
  {dc4666c1-0202-4f2e-9869-5ed24bd6ba35}, !- Summer Design Day Schedule Name
  {b34132fa-a132-4b6a-97f1-d0584cce7c10}; !- Winter Design Day Schedule Name

OS:Schedule:Day,
  {c51c8ed5-a9d5-46cd-9b43-d9646ee53d54}, !- Handle
  0900|2000|AutoSales|default|hoo Schedule Week Day, !- Name
  {b3af2f02-8368-4385-8b27-b9b48d7a393f}, !- Schedule Type Limits Name
  ,                                       !- Interpolate to Timestep
  9,                                      !- Hour 1
  0,                                      !- Minute 1
  0,                                      !- Value Until Time 1
  20,                                     !- Hour 2
  0,                                      !- Minute 2
  1,                                      !- Value Until Time 2
  24,                                     !- Hour 3
  0,                                      !- Minute 3
  0;                                      !- Value Until Time 3

OS:Schedule:Day,
  {e1b8edcb-76d8-4755-a816-145bdfa4cb08}, !- Handle
  Schedule Day 2,                         !- Name
  ,                                       !- Schedule Type Limits Name
  ,                                       !- Interpolate to Timestep
  24,                                     !- Hour 1
  0,                                      !- Minute 1
  0;                                      !- Value Until Time 1

OS:Schedule:Day,
  {b34132fa-a132-4b6a-97f1-d0584cce7c10}, !- Handle
  0900|2000|AutoSales|default|hoo Winter Design Day, !- Name
  {b3af2f02-8368-4385-8b27-b9b48d7a393f}, !- Schedule Type Limits Name
  ,                                       !- Interpolate to Timestep
  24,                                     !- Hour 1
  0,                                      !- Minute 1
  0;                                      !- Value Until Time 1

OS:Schedule:Day,
  {a344b833-b2a1-46d1-8591-e5ff0d1620ed}, !- Handle
  Schedule Day 3,                         !- Name
  ,                                       !- Schedule Type Limits Name
  ,                                       !- Interpolate to Timestep
  24,                                     !- Hour 1
  0,                                      !- Minute 1
  0;                                      !- Value Until Time 1

OS:Schedule:Day,
  {dc4666c1-0202-4f2e-9869-5ed24bd6ba35}, !- Handle
  0900|2000|AutoSales|default|hoo Summer Design Day, !- Name
  {b3af2f02-8368-4385-8b27-b9b48d7a393f}, !- Schedule Type Limits Name
  ,                                       !- Interpolate to Timestep
  24,                                     !- Hour 1
  0,                                      !- Minute 1
  1;                                      !- Value Until Time 1

OS:DefaultScheduleSet,
  {ae12f794-58fc-4a59-9f10-7a3efc205a3a}, !- Handle
  Building Hours of Operation,            !- Name
  {6e91b145-63cb-4352-b4b2-c38c009929aa}, !- Hours of Operation Schedule Name
  ,                                       !- Number of People Schedule Name
  ,                                       !- People Activity Level Schedule Name
  ,                                       !- Lighting Schedule Name
  ,                                       !- Electric Equipment Schedule Name
  ,                                       !- Gas Equipment Schedule Name
  ,                                       !- Hot Water Equipment Schedule Name
  ,                                       !- Infiltration Schedule Name
  ,                                       !- Steam Equipment Schedule Name
  ;                                       !- Other Equipment Schedule Name

OS:ScheduleTypeLimits,
  {b3af2f02-8368-4385-8b27-b9b48d7a393f}, !- Handle
  OnOff,                                  !- Name
  0,                                      !- Lower Limit Value {BasedOnField A4}
  1,                                      !- Upper Limit Value {BasedOnField A4}
  Discrete,                               !- Numeric Type
  Availability;                           !- Unit Type

OS:Schedule:Ruleset,
  {e13d00f3-0824-43b7-8ee9-d0b49746e364}, !- Handle
  0900|2000|AutoSales|Garage|infiltration, !- Name
  {79ada197-02bf-478b-a971-74b41630727a}, !- Schedule Type Limits Name
  {aaec24cf-c030-45d9-aede-e6f0ccf38aad}, !- Default Day Schedule Name
  {ea9880f3-6077-4b17-8ad3-a5c1015fd731}, !- Summer Design Day Schedule Name
  {744607d2-674c-4dc8-b562-a3da182a2b48}; !- Winter Design Day Schedule Name

OS:ScheduleTypeLimits,
  {79ada197-02bf-478b-a971-74b41630727a}, !- Handle
  Fraction Schedule Type Limits,          !- Name
  0,                                      !- Lower Limit Value {BasedOnField A4}
  1,                                      !- Upper Limit Value {BasedOnField A4}
  Continuous,                             !- Numeric Type
  Dimensionless;                          !- Unit Type

OS:Schedule:Day,
  {aaec24cf-c030-45d9-aede-e6f0ccf38aad}, !- Handle
  0900|2000|AutoSales|Garage|infiltration |default, !- Name
  {79ada197-02bf-478b-a971-74b41630727a}, !- Schedule Type Limits Name
  ,                                       !- Interpolate to Timestep
  24,                                     !- Hour 1
  0,                                      !- Minute 1
  1;                                      !- Value Until Time 1

OS:Schedule:Day,
  {ea9880f3-6077-4b17-8ad3-a5c1015fd731}, !- Handle
  0900|2000|AutoSales|Garage|infiltration Summer Design Day, !- Name
  {79ada197-02bf-478b-a971-74b41630727a}, !- Schedule Type Limits Name
  ,                                       !- Interpolate to Timestep
  24,                                     !- Hour 1
  0,                                      !- Minute 1
  1;                                      !- Value Until Time 1

OS:Schedule:Day,
  {744607d2-674c-4dc8-b562-a3da182a2b48}, !- Handle
  0900|2000|AutoSales|Garage|infiltration Winter Design Day, !- Name
  {79ada197-02bf-478b-a971-74b41630727a}, !- Schedule Type Limits Name
  ,                                       !- Interpolate to Timestep
  24,                                     !- Hour 1
  0,                                      !- Minute 1
  1;                                      !- Value Until Time 1

OS:Schedule:Rule,
  {6d782a40-2f1e-4164-a079-ccbd4088c6fb}, !- Handle
  0900|2000|AutoSales|Garage|infiltration |1/1-12/31|Sun Rule, !- Name
  {e13d00f3-0824-43b7-8ee9-d0b49746e364}, !- Schedule Ruleset Name
  0,                                      !- Rule Order
  {77bb56c6-f10f-492e-a3d8-b0ce3d3697e2}, !- Day Schedule Name
  Yes,                                    !- Apply Sunday
  ,                                       !- Apply Monday
  ,                                       !- Apply Tuesday
  ,                                       !- Apply Wednesday
  ,                                       !- Apply Thursday
  ,                                       !- Apply Friday
  ,                                       !- Apply Saturday
  ,                                       !- Apply Holiday
  DateRange,                              !- Date Specification Type
  1,                                      !- Start Month
  1,                                      !- Start Day
  12,                                     !- End Month
  31;                                     !- End Day

OS:Schedule:Day,
  {77bb56c6-f10f-492e-a3d8-b0ce3d3697e2}, !- Handle
  0900|2000|AutoSales|Garage|infiltration |1/1-12/31|Sun, !- Name
  {79ada197-02bf-478b-a971-74b41630727a}, !- Schedule Type Limits Name
  ,                                       !- Interpolate to Timestep
  24,                                     !- Hour 1
  0,                                      !- Minute 1
  1;                                      !- Value Until Time 1

OS:Schedule:Rule,
  {4761020e-d6cf-448f-b82f-46a7771b5271}, !- Handle
  0900|2000|AutoSales|Garage|infiltration |1/1-12/31|Sat Rule, !- Name
  {e13d00f3-0824-43b7-8ee9-d0b49746e364}, !- Schedule Ruleset Name
  1,                                      !- Rule Order
  {9be48c28-c338-4be5-9808-50e6e7294114}, !- Day Schedule Name
  ,                                       !- Apply Sunday
  ,                                       !- Apply Monday
  ,                                       !- Apply Tuesday
  ,                                       !- Apply Wednesday
  ,                                       !- Apply Thursday
  ,                                       !- Apply Friday
  Yes,                                    !- Apply Saturday
  ,                                       !- Apply Holiday
  DateRange,                              !- Date Specification Type
  1,                                      !- Start Month
  1,                                      !- Start Day
  12,                                     !- End Month
  31;                                     !- End Day

OS:Schedule:Day,
  {9be48c28-c338-4be5-9808-50e6e7294114}, !- Handle
  0900|2000|AutoSales|Garage|infiltration |1/1-12/31|Sat, !- Name
  {79ada197-02bf-478b-a971-74b41630727a}, !- Schedule Type Limits Name
  ,                                       !- Interpolate to Timestep
  24,                                     !- Hour 1
  0,                                      !- Minute 1
  1;                                      !- Value Until Time 1

OS:Schedule:Ruleset,
  {fb646fcb-2039-4cc7-b6e4-30bcf523f84a}, !- Handle
  0900|2000|AutoSales|default|clothing,   !- Name
  {a2b55bc7-a0a5-4ce0-954d-8a4f198e92d6}, !- Schedule Type Limits Name
  {1208fd93-e3df-4dc6-9e82-621ddef92266}, !- Default Day Schedule Name
  {d92c2dfd-e285-4f68-817c-676c2fdf4e82}, !- Summer Design Day Schedule Name
  {bb2ed4d5-9b6c-49fc-b25a-59d678c09122}; !- Winter Design Day Schedule Name

OS:ScheduleTypeLimits,
  {a2b55bc7-a0a5-4ce0-954d-8a4f198e92d6}, !- Handle
  Dimensionless Schedule Type Limits,     !- Name
  ,                                       !- Lower Limit Value {BasedOnField A4}
  ,                                       !- Upper Limit Value {BasedOnField A4}
  Continuous,                             !- Numeric Type
  Dimensionless;                          !- Unit Type

OS:Schedule:Day,
  {1208fd93-e3df-4dc6-9e82-621ddef92266}, !- Handle
  0900|2000|AutoSales|default|clothing |default, !- Name
  {a2b55bc7-a0a5-4ce0-954d-8a4f198e92d6}, !- Schedule Type Limits Name
  ,                                       !- Interpolate to Timestep
  24,                                     !- Hour 1
  0,                                      !- Minute 1
  0.9;                                    !- Value Until Time 1

OS:Schedule:Day,
  {d92c2dfd-e285-4f68-817c-676c2fdf4e82}, !- Handle
  0900|2000|AutoSales|default|clothing Summer Design Day, !- Name
  {a2b55bc7-a0a5-4ce0-954d-8a4f198e92d6}, !- Schedule Type Limits Name
  ,                                       !- Interpolate to Timestep
  24,                                     !- Hour 1
  0,                                      !- Minute 1
  0.9;                                    !- Value Until Time 1

OS:Schedule:Day,
  {bb2ed4d5-9b6c-49fc-b25a-59d678c09122}, !- Handle
  0900|2000|AutoSales|default|clothing Winter Design Day, !- Name
  {a2b55bc7-a0a5-4ce0-954d-8a4f198e92d6}, !- Schedule Type Limits Name
  ,                                       !- Interpolate to Timestep
  24,                                     !- Hour 1
  0,                                      !- Minute 1
  0.9;                                    !- Value Until Time 1

OS:Schedule:Rule,
  {5e2f925b-38ff-4e8c-b3a8-e8d62a6ded1a}, !- Handle
  0900|2000|AutoSales|default|clothing |7/1-9/30|Mon/Tue/Wed/Thu/Fri/Sat/Sun Rule, !- Name
  {fb646fcb-2039-4cc7-b6e4-30bcf523f84a}, !- Schedule Ruleset Name
  0,                                      !- Rule Order
  {b2d2176d-4d18-4746-8775-f852e446ef56}, !- Day Schedule Name
  Yes,                                    !- Apply Sunday
  Yes,                                    !- Apply Monday
  Yes,                                    !- Apply Tuesday
  Yes,                                    !- Apply Wednesday
  Yes,                                    !- Apply Thursday
  Yes,                                    !- Apply Friday
  Yes,                                    !- Apply Saturday
  ,                                       !- Apply Holiday
  DateRange,                              !- Date Specification Type
  7,                                      !- Start Month
  1,                                      !- Start Day
  9,                                      !- End Month
  30;                                     !- End Day

OS:Schedule:Day,
  {b2d2176d-4d18-4746-8775-f852e446ef56}, !- Handle
  0900|2000|AutoSales|default|clothing |7/1-9/30|Mon/Tue/Wed/Thu/Fri/Sat/Sun, !- Name
  {a2b55bc7-a0a5-4ce0-954d-8a4f198e92d6}, !- Schedule Type Limits Name
  ,                                       !- Interpolate to Timestep
  24,                                     !- Hour 1
  0,                                      !- Minute 1
  0.7;                                    !- Value Until Time 1

OS:Schedule:Rule,
  {5361eaf6-17fd-4b6f-b327-175444d0a0a1}, !- Handle
  0900|2000|AutoSales|default|clothing |12/1-3/31|Mon/Tue/Wed/Thu/Fri/Sat/Sun Rule, !- Name
  {fb646fcb-2039-4cc7-b6e4-30bcf523f84a}, !- Schedule Ruleset Name
  1,                                      !- Rule Order
  {4d127537-cfac-4c4b-8dae-c91e5045449e}, !- Day Schedule Name
  Yes,                                    !- Apply Sunday
  Yes,                                    !- Apply Monday
  Yes,                                    !- Apply Tuesday
  Yes,                                    !- Apply Wednesday
  Yes,                                    !- Apply Thursday
  Yes,                                    !- Apply Friday
  Yes,                                    !- Apply Saturday
  ,                                       !- Apply Holiday
  DateRange,                              !- Date Specification Type
  12,                                     !- Start Month
  1,                                      !- Start Day
  3,                                      !- End Month
  31;                                     !- End Day

OS:Schedule:Day,
  {4d127537-cfac-4c4b-8dae-c91e5045449e}, !- Handle
  0900|2000|AutoSales|default|clothing |12/1-3/31|Mon/Tue/Wed/Thu/Fri/Sat/Sun, !- Name
  {a2b55bc7-a0a5-4ce0-954d-8a4f198e92d6}, !- Schedule Type Limits Name
  ,                                       !- Interpolate to Timestep
  24,                                     !- Hour 1
  0,                                      !- Minute 1
  1.3;                                    !- Value Until Time 1

OS:Schedule:Ruleset,
  {1b32df16-4089-41a1-b33e-0edeffe354fb}, !- Handle
  0900|2000|AutoSales|default|infiltration, !- Name
  {79ada197-02bf-478b-a971-74b41630727a}, !- Schedule Type Limits Name
  {604555a2-1d96-4951-9df4-2efdd4da7c89}, !- Default Day Schedule Name
  {03cdff09-9cc5-4327-a809-6d6840c12919}, !- Summer Design Day Schedule Name
  {308e7d1a-9bd7-42b9-996f-763d4fbb9597}; !- Winter Design Day Schedule Name

OS:Schedule:Day,
  {604555a2-1d96-4951-9df4-2efdd4da7c89}, !- Handle
  0900|2000|AutoSales|default|infiltration |default, !- Name
  {79ada197-02bf-478b-a971-74b41630727a}, !- Schedule Type Limits Name
  ,                                       !- Interpolate to Timestep
  1,                                      !- Hour 1
  0,                                      !- Minute 1
  1,                                      !- Value Until Time 1
  7,                                      !- Hour 2
  0,                                      !- Minute 2
  0.25,                                   !- Value Until Time 2
  24,                                     !- Hour 3
  0,                                      !- Minute 3
  1;                                      !- Value Until Time 3

OS:Schedule:Day,
  {03cdff09-9cc5-4327-a809-6d6840c12919}, !- Handle
  0900|2000|AutoSales|default|infiltration Summer Design Day, !- Name
  {79ada197-02bf-478b-a971-74b41630727a}, !- Schedule Type Limits Name
  ,                                       !- Interpolate to Timestep
  1,                                      !- Hour 1
  0,                                      !- Minute 1
  1,                                      !- Value Until Time 1
  7,                                      !- Hour 2
  0,                                      !- Minute 2
  0.25,                                   !- Value Until Time 2
  24,                                     !- Hour 3
  0,                                      !- Minute 3
  1;                                      !- Value Until Time 3

OS:Schedule:Day,
  {308e7d1a-9bd7-42b9-996f-763d4fbb9597}, !- Handle
  0900|2000|AutoSales|default|infiltration Winter Design Day, !- Name
  {79ada197-02bf-478b-a971-74b41630727a}, !- Schedule Type Limits Name
  ,                                       !- Interpolate to Timestep
  1,                                      !- Hour 1
  0,                                      !- Minute 1
  1,                                      !- Value Until Time 1
  7,                                      !- Hour 2
  0,                                      !- Minute 2
  0.25,                                   !- Value Until Time 2
  24,                                     !- Hour 3
  0,                                      !- Minute 3
  1;                                      !- Value Until Time 3

OS:Schedule:Rule,
  {88199d29-901e-4fe3-ab90-31942b098a98}, !- Handle
  0900|2000|AutoSales|default|infiltration |1/1-12/31|Sun Rule, !- Name
  {1b32df16-4089-41a1-b33e-0edeffe354fb}, !- Schedule Ruleset Name
  0,                                      !- Rule Order
  {85783116-3fd5-4491-b51c-82cf70e7b511}, !- Day Schedule Name
  Yes,                                    !- Apply Sunday
  ,                                       !- Apply Monday
  ,                                       !- Apply Tuesday
  ,                                       !- Apply Wednesday
  ,                                       !- Apply Thursday
  ,                                       !- Apply Friday
  ,                                       !- Apply Saturday
  ,                                       !- Apply Holiday
  DateRange,                              !- Date Specification Type
  1,                                      !- Start Month
  1,                                      !- Start Day
  12,                                     !- End Month
  31;                                     !- End Day

OS:Schedule:Day,
  {85783116-3fd5-4491-b51c-82cf70e7b511}, !- Handle
  0900|2000|AutoSales|default|infiltration |1/1-12/31|Sun, !- Name
  {79ada197-02bf-478b-a971-74b41630727a}, !- Schedule Type Limits Name
  ,                                       !- Interpolate to Timestep
  24,                                     !- Hour 1
  0,                                      !- Minute 1
  1;                                      !- Value Until Time 1

OS:Schedule:Rule,
  {e7c35c6a-4ef4-4735-a57e-9b6587a5eb83}, !- Handle
  0900|2000|AutoSales|default|infiltration |1/1-12/31|Sat Rule, !- Name
  {1b32df16-4089-41a1-b33e-0edeffe354fb}, !- Schedule Ruleset Name
  1,                                      !- Rule Order
  {d2a4ffd8-d8c0-476d-bc3b-b25e8f3f81e2}, !- Day Schedule Name
  ,                                       !- Apply Sunday
  ,                                       !- Apply Monday
  ,                                       !- Apply Tuesday
  ,                                       !- Apply Wednesday
  ,                                       !- Apply Thursday
  ,                                       !- Apply Friday
  Yes,                                    !- Apply Saturday
  ,                                       !- Apply Holiday
  DateRange,                              !- Date Specification Type