
OS:Version,
  {aad2c3e6-e513-4d91-bc01-c6f969d9024c}, !- Handle
  1.6.0;                                  !- Version Identifier

OS:ClimateZones,
  {135edfab-17e7-40db-a436-27d385a8cd6d}, !- Handle
  ,                                       !- Active Institution
  ,                                       !- Active Year
  ASHRAE,                                 !- Climate Zone Institution Name 1
  ANSI/ASHRAE Standard 169,               !- Climate Zone Document Name 1
  2006,                                   !- Climate Zone Document Year 1
  ,                                       !- Climate Zone Value 1
  CEC,                                    !- Climate Zone Institution Name 2
  California Climate Zone Descriptions,   !- Climate Zone Document Name 2
  1995,                                   !- Climate Zone Document Year 2
  ;                                       !- Climate Zone Value 2

OS:YearDescription,
  {513d8dda-86cb-442a-b01c-1f7f0e0ac70e}; !- Handle

OS:RadianceParameters,
  {270a96f1-3c86-4b75-a667-cdf22790e2c8}, !- Handle
  1,                                      !- Accumulated Rays per Record
  0,                                      !- Direct Threshold
  1,                                      !- Direct Certainty
  1,                                      !- Direct Jitter
  1,                                      !- Direct Pretest
  6,                                      !- Ambient Bounces VMX
  2,                                      !- Ambient Bounces DMX
  4050,                                   !- Ambient Divisions VMX
  512,                                    !- Ambient Divisions DMX
  256,                                    !- Ambient Supersamples
  0.001,                                  !- Limit Weight VMX
  0.001,                                  !- Limit Weight DMX
  500,                                    !- Klems Sampling Density
  146;                                    !- Sky Discretization Resolution

OS:SimulationControl,
  {2c487a4c-bac9-4ac5-b669-1e49d9da7c2b}, !- Handle
  ,                                       !- Do Zone Sizing Calculation
  ,                                       !- Do System Sizing Calculation
  ,                                       !- Do Plant Sizing Calculation
  No,                                     !- Run Simulation for Sizing Periods
  ,                                       !- Run Simulation for Weather File Run Periods
  0.04,                                   !- Loads Convergence Tolerance Value
  ,                                       !- Temperature Convergence Tolerance Value {deltaC}
  ,                                       !- Solar Distribution
  ,                                       !- Maximum Number of Warmup Days
  2;                                      !- Minimum Number of Warmup Days

OS:Sizing:Parameters,
  {dde5af6f-7923-4600-a28a-7556673a0266}, !- Handle
  1.25,                                   !- Heating Sizing Factor
  1.15;                                   !- Cooling Sizing Factor

OS:ProgramControl,
  {05027a99-f2b3-4aeb-afc6-1425fbb4371d}; !- Handle

OS:Timestep,
  {4ebc9f1e-4707-402e-9844-67eb1ffbd522}, !- Handle
  2;                                      !- Number of Timesteps per Hour

OS:OutputControl:ReportingTolerances,
  {65797aa2-06a9-45fe-b69d-bc6e060399d3}; !- Handle

OS:ConvergenceLimits,
  {9fc11aba-8822-4f3d-970c-46391ba4040d}; !- Handle

OS:ShadowCalculation,
  {ca758bea-4416-4626-9bba-3d8795c79bd6}, !- Handle
  7,                                      !- Calculation Frequency
  15000;                                  !- Maximum Figures in Shadow Overlap Calculations

OS:SurfaceConvectionAlgorithm:Inside,
  {aaabfc36-718a-4ab0-b622-f186ebb45230}, !- Handle
  TARP;                                   !- Algorithm

OS:SurfaceConvectionAlgorithm:Outside,
  {9a0a9f6f-4bbd-4b12-a121-9492a1fcd7d6}, !- Handle
  DOE-2;                                  !- Algorithm

OS:HeatBalanceAlgorithm,
  {9d93e563-e1e0-46d7-9e39-d1c8aceb7212}, !- Handle
  ConductionTransferFunction,             !- Algorithm
  200;                                    !- Surface Temperature Upper Limit {F}

OS:ZoneAirHeatBalanceAlgorithm,
  {8520d93e-310f-4696-9bcd-36228bfdd743}, !- Handle
  AnalyticalSolution;                     !- Algorithm

OS:ZoneAirContaminantBalance,
  {eb5fc3ae-fb22-4160-8fcb-3e3b22b000d3}; !- Handle

OS:ZoneCapacitanceMultiplier:ResearchSpecial,
  {4020ce4f-5a7a-4849-8028-8305d7b751b1}, !- Handle
  ,                                       !- Temperature Capacity Multiplier
  ,                                       !- Humidity Capacity Multiplier
  ;                                       !- Carbon Dioxide Capacity Multiplier

OS:RunPeriod,
  {28df894d-6af9-4fb8-8f56-df1753344aa3}, !- Handle
  Run Period 1,                           !- Name
  1,                                      !- Begin Month
  1,                                      !- Begin Day of Month
  12,                                     !- End Month
  31,                                     !- End Day of Month
  ,                                       !- Use Weather File Holidays and Special Days
  ,                                       !- Use Weather File Daylight Saving Period
  ,                                       !- Apply Weekend Holiday Rule
  ,                                       !- Use Weather File Rain Indicators
  ,                                       !- Use Weather File Snow Indicators
  ;                                       !- Number of Times Runperiod to be Repeated

OS:Building,
  {bf305633-c5a1-4881-9edf-ca5e1a8e1274}, !- Handle
  Building 1,                             !- Name
  ,                                       !- Building Sector Type
  ,                                       !- North Axis {deg}
  ,                                       !- Nominal Floor to Floor Height {m}
  ,                                       !- Space Type Name
  ,                                       !- Default Construction Set Name
  {a927ad2a-e576-4fc3-bd46-fa6b3249f682}, !- Default Schedule Set Name
  ,                                       !- Standards Number of Stories
  ,                                       !- Standards Number of Above Ground Stories
  AutoRepair;                             !- Standards Building Type

OS:LifeCycleCost:Parameters,
  {231cf8a0-f0e7-4251-a99f-11f0d464e661}, !- Handle
  FEMP,                                   !- Analysis Type
  ,                                       !- Discounting Convention
  ,                                       !- Inflation Approach
  ,                                       !- Real Discount Rate
  ,                                       !- Nominal Discount Rate
  ,                                       !- Inflation
  ,                                       !- Base Date Month
  ,                                       !- Base Date Year
  ,                                       !- Service Date Month
  ,                                       !- Service Date Year
  ,                                       !- Length of Study Period in Years
  ,                                       !- Tax Rate
  ,                                       !- Depreciation Method
  Yes;                                    !- Use NIST Fuel Escalation Rates

OS:Facility,
  {3ba8e45b-b833-44eb-a723-ea6c3946dc96}; !- Handle

OS:SpaceType,
  {5f4b885f-956a-4a71-99cc-f4f8818ec104}, !- Handle
  AutoRepair|Garage|DOE Ref 2004|ASHRAE 169-2006-5A, !- Name
  {5a2173ae-0b25-44d9-b987-afdb0f202c27}, !- Default Construction Set Name
  {470e59cd-e035-477a-84c7-c1f484a33b37}, !- Default Schedule Set Name
  {2e7d8cec-c0ca-473b-8ec9-1b658813ca07}, !- Group Rendering Name
  {d7e39ea7-2311-4ed9-89f7-4c8eeee5fa91}, !- Design Specification Outdoor Air Object Name
  AutoRepair,                             !- Standards Building Type
  Garage;                                 !- Standards Space Type

OS:Rendering:Color,
  {2e7d8cec-c0ca-473b-8ec9-1b658813ca07}, !- Handle
  Rendering Color 1,                      !- Name
  120,                                    !- Rendering Red Value
  120,                                    !- Rendering Green Value
  120;                                    !- Rendering Blue Value

OS:SpaceType,
  {da65b88d-fccf-40ac-a2d7-9c564237602e}, !- Handle
  AutoRepair|BlendFront|DOE Ref 2004|ASHRAE 169-2006-5A, !- Name
  {5a2173ae-0b25-44d9-b987-afdb0f202c27}, !- Default Construction Set Name
  ,                                       !- Default Schedule Set Name
  {708f955d-73c5-417f-a741-35a897b59f97}, !- Group Rendering Name
  {eaec16e2-1fd3-445b-950e-a7d0546f0602}, !- Design Specification Outdoor Air Object Name
  AutoRepair,                             !- Standards Building Type
  BlendFront;                             !- Standards Space Type

OS:Rendering:Color,
  {708f955d-73c5-417f-a741-35a897b59f97}, !- Handle
  Rendering Color 2,                      !- Name
  230,                                    !- Rendering Red Value
  157,                                    !- Rendering Green Value
  120;                                    !- Rendering Blue Value

OS:SpaceType,
  {31130258-72fa-4ecd-a5de-e170b49fd1f6}, !- Handle
  AutoRepair|Restroom|DOE Ref 2004|ASHRAE 169-2006-5A, !- Name
  {5a2173ae-0b25-44d9-b987-afdb0f202c27}, !- Default Construction Set Name
  {24c80a50-5e79-4f5f-8e16-7ff907c05cad}, !- Default Schedule Set Name
  {08697673-a3b5-403c-b2c5-b69eee35a30f}, !- Group Rendering Name
  {4b34f588-44e9-49e0-93e1-5e6cb00a2df2}, !- Design Specification Outdoor Air Object Name
  AutoRepair,                             !- Standards Building Type
  Restroom;                               !- Standards Space Type

OS:Rendering:Color,
  {08697673-a3b5-403c-b2c5-b69eee35a30f}, !- Handle
  Rendering Color 3,                      !- Name
  169,                                    !- Rendering Red Value
  169,                                    !- Rendering Green Value
  31;                                     !- Rendering Blue Value

OS:Schedule:Ruleset,
  {60e3c735-2857-43e6-a3bc-858b06f2e36a}, !- Handle
  0800|1900|AutoRepair|default|hoo,       !- Name
  {9537b034-4301-44e6-bb03-d109455589db}, !- Schedule Type Limits Name
  {7e0673c3-f12b-4fbf-9a62-a575f4acabfa}, !- Default Day Schedule Name
  {39df03af-31a3-45d6-b9f4-8ca5f1568eb4}, !- Summer Design Day Schedule Name
  {07e383bf-ac4f-475d-94f2-83c3892f3707}; !- Winter Design Day Schedule Name

OS:Schedule:Day,
  {7e0673c3-f12b-4fbf-9a62-a575f4acabfa}, !- Handle
  0800|1900|AutoRepair|default|hoo Schedule Week Day, !- Name
  {9537b034-4301-44e6-bb03-d109455589db}, !- Schedule Type Limits Name
  ,                                       !- Interpolate to Timestep
  8,                                      !- Hour 1
  0,                                      !- Minute 1
  0,                                      !- Value Until Time 1
  19,                                     !- Hour 2
  0,                                      !- Minute 2
  1,                                      !- Value Until Time 2
  24,                                     !- Hour 3
  0,                                      !- Minute 3
  0;                                      !- Value Until Time 3

OS:Schedule:Day,
  {1606babe-3824-44fe-8cbc-639457724d2d}, !- Handle
  Schedule Day 2,                         !- Name
  ,                                       !- Schedule Type Limits Name
  ,                                       !- Interpolate to Timestep
  24,                                     !- Hour 1
  0,                                      !- Minute 1
  0;                                      !- Value Until Time 1

OS:Schedule:Day,
  {07e383bf-ac4f-475d-94f2-83c3892f3707}, !- Handle
  0800|1900|AutoRepair|default|hoo Winter Design Day, !- Name
  {9537b034-4301-44e6-bb03-d109455589db}, !- Schedule Type Limits Name
  ,                                       !- Interpolate to Timestep
  24,                                     !- Hour 1
  0,                                      !- Minute 1
  0;                                      !- Value Until Time 1

OS:Schedule:Day,
  {1b6218de-49ff-49e3-b8e4-f2d90cd83b61}, !- Handle
  Schedule Day 3,                         !- Name
  ,                                       !- Schedule Type Limits Name
  ,                                       !- Interpolate to Timestep
  24,                                     !- Hour 1
  0,                                      !- Minute 1
  0;                                      !- Value Until Time 1

OS:Schedule:Day,
  {39df03af-31a3-45d6-b9f4-8ca5f1568eb4}, !- Handle
  0800|1900|AutoRepair|default|hoo Summer Design Day, !- Name
  {9537b034-4301-44e6-bb03-d109455589db}, !- Schedule Type Limits Name
  ,                                       !- Interpolate to Timestep
  24,                                     !- Hour 1
  0,                                      !- Minute 1
  1;                                      !- Value Until Time 1

OS:DefaultScheduleSet,
  {a927ad2a-e576-4fc3-bd46-fa6b3249f682}, !- Handle
  Building Hours of Operation,            !- Name
  {60e3c735-2857-43e6-a3bc-858b06f2e36a}, !- Hours of Operation Schedule Name
  ,                                       !- Number of People Schedule Name
  ,                                       !- People Activity Level Schedule Name
  ,                                       !- Lighting Schedule Name
  ,                                       !- Electric Equipment Schedule Name
  ,                                       !- Gas Equipment Schedule Name
  ,                                       !- Hot Water Equipment Schedule Name
  ,                                       !- Infiltration Schedule Name
  ,                                       !- Steam Equipment Schedule Name
  ;                                       !- Other Equipment Schedule Name

OS:ScheduleTypeLimits,
  {9537b034-4301-44e6-bb03-d109455589db}, !- Handle
  OnOff,                                  !- Name
  0,                                      !- Lower Limit Value {BasedOnField A4}
  1,                                      !- Upper Limit Value {BasedOnField A4}
  Discrete,                               !- Numeric Type
  Availability;                           !- Unit Type

OS:Schedule:Ruleset,
  {9789e0b2-6e92-42c8-9ba3-af9ac3b7425e}, !- Handle
  0800|1900|AutoRepair|default|air_velocity, !- Name
  {20e29444-c00b-478d-ac70-9c648bae4cd8}, !- Schedule Type Limits Name
  {fb3255d1-3953-4cfd-aec7-750cdc437daa}, !- Default Day Schedule Name
  {a6c10146-f4d6-475d-afcb-f4fe05cdf3b0}, !- Summer Design Day Schedule Name
  {8bef923b-6a5c-4a18-bf9b-677940056d93}; !- Winter Design Day Schedule Name

OS:ScheduleTypeLimits,
  {20e29444-c00b-478d-ac70-9c648bae4cd8}, !- Handle
  Dimensionless Schedule Type Limits,     !- Name
  ,                                       !- Lower Limit Value {BasedOnField A4}
  ,                                       !- Upper Limit Value {BasedOnField A4}
  Continuous,                             !- Numeric Type
  Dimensionless;                          !- Unit Type

OS:Schedule:Day,
  {fb3255d1-3953-4cfd-aec7-750cdc437daa}, !- Handle
  0800|1900|AutoRepair|default|air_velocity |default, !- Name
  {20e29444-c00b-478d-ac70-9c648bae4cd8}, !- Schedule Type Limits Name
  ,                                       !- Interpolate to Timestep
  24,                                     !- Hour 1
  0,                                      !- Minute 1
  0.200152;                               !- Value Until Time 1

OS:Schedule:Day,
  {a6c10146-f4d6-475d-afcb-f4fe05cdf3b0}, !- Handle
  0800|1900|AutoRepair|default|air_velocity Summer Design Day, !- Name
  {20e29444-c00b-478d-ac70-9c648bae4cd8}, !- Schedule Type Limits Name
  ,                                       !- Interpolate to Timestep
  24,                                     !- Hour 1
  0,                                      !- Minute 1
  0.200152;                               !- Value Until Time 1

OS:Schedule:Day,
  {8bef923b-6a5c-4a18-bf9b-677940056d93}, !- Handle
  0800|1900|AutoRepair|default|air_velocity Winter Design Day, !- Name
  {20e29444-c00b-478d-ac70-9c648bae4cd8}, !- Schedule Type Limits Name
  ,                                       !- Interpolate to Timestep
  24,                                     !- Hour 1
  0,                                      !- Minute 1
  0.200152;                               !- Value Until Time 1

OS:Schedule:Ruleset,
  {a88ba5bc-c753-4845-966b-aeb3ae4cf6e4}, !- Handle
  0800|1900|AutoRepair|default|occ,       !- Name
  {fad1bfcb-2166-4ad2-a7bd-87dd7eedd0b9}, !- Schedule Type Limits Name
  {70142701-9c69-4869-891b-5bfe793da6f0}, !- Default Day Schedule Name
  {53b62e35-971d-47f6-9558-905641d9807f}, !- Summer Design Day Schedule Name
  {48366e95-7448-43c8-a05c-936cf0284f44}; !- Winter Design Day Schedule Name

OS:ScheduleTypeLimits,
  {fad1bfcb-2166-4ad2-a7bd-87dd7eedd0b9}, !- Handle
  Occupancy Schedule Type Limits,         !- Name
  0,                                      !- Lower Limit Value {BasedOnField A4}
  1,                                      !- Upper Limit Value {BasedOnField A4}
  Continuous,                             !- Numeric Type
  Dimensionless;                          !- Unit Type

OS:Schedule:Day,
  {70142701-9c69-4869-891b-5bfe793da6f0}, !- Handle
  0800|1900|AutoRepair|default|occ |default, !- Name
  {fad1bfcb-2166-4ad2-a7bd-87dd7eedd0b9}, !- Schedule Type Limits Name
  ,                                       !- Interpolate to Timestep
  5,                                      !- Hour 1
  0,                                      !- Minute 1
  0,                                      !- Value Until Time 1
  5,                                      !- Hour 2
  30,                                     !- Minute 2
  0.07,                                   !- Value Until Time 2
  6,                                      !- Hour 3
  0,                                      !- Minute 3
  0.13,                                   !- Value Until Time 3
  6,                                      !- Hour 4
  30,                                     !- Minute 4
  0.2,                                    !- Value Until Time 4
  7,                                      !- Hour 5
  0,                                      !- Minute 5
  0.27,                                   !- Value Until Time 5
  7,                                      !- Hour 6
  30,                                     !- Minute 6
  0.33,                                   !- Value Until Time 6
  23,                                     !- Hour 7
  0,                                      !- Minute 7
  0.4,                                    !- Value Until Time 7
  23,                                     !- Hour 8
  30,                                     !- Minute 8
  0.2,                                    !- Value Until Time 8
  24,                                     !- Hour 9
  0,                                      !- Minute 9
  0;                                      !- Value Until Time 9

OS:Schedule:Day,
  {53b62e35-971d-47f6-9558-905641d9807f}, !- Handle
  0800|1900|AutoRepair|default|occ Summer Design Day, !- Name
  {fad1bfcb-2166-4ad2-a7bd-87dd7eedd0b9}, !- Schedule Type Limits Name
  ,                                       !- Interpolate to Timestep
  5,                                      !- Hour 1
  0,                                      !- Minute 1
  0,                                      !- Value Until Time 1
  5,                                      !- Hour 2
  30,                                     !- Minute 2
  0.07,                                   !- Value Until Time 2
  6,                                      !- Hour 3
  0,                                      !- Minute 3
  0.13,                                   !- Value Until Time 3
  6,                                      !- Hour 4
  30,                                     !- Minute 4
  0.2,                                    !- Value Until Time 4
  7,                                      !- Hour 5
  0,                                      !- Minute 5
  0.27,                                   !- Value Until Time 5
  23,                                     !- Hour 6
  0,                                      !- Minute 6
  1,                                      !- Value Until Time 6
  23,                                     !- Hour 7
  30,                                     !- Minute 7
  0.2,                                    !- Value Until Time 7
  24,                                     !- Hour 8
  0,                                      !- Minute 8
  0;                                      !- Value Until Time 8

OS:Schedule:Day,
  {48366e95-7448-43c8-a05c-936cf0284f44}, !- Handle
  0800|1900|AutoRepair|default|occ Winter Design Day, !- Name
  {fad1bfcb-2166-4ad2-a7bd-87dd7eedd0b9}, !- Schedule Type Limits Name
  ,                                       !- Interpolate to Timestep
  24,                                     !- Hour 1
  0,                                      !- Minute 1
  0;                                      !- Value Until Time 1

OS:Schedule:Rule,
  {8095d8f9-b081-4f4f-9729-0de4dc900320}, !- Handle
  0800|1900|AutoRepair|default|occ |1/1-12/31|Sun Rule, !- Name
  {a88ba5bc-c753-4845-966b-aeb3ae4cf6e4}, !- Schedule Ruleset Name
  0,                                      !- Rule Order
  {dad97052-7416-454b-abd3-e373bd050882}, !- Day Schedule Name
  Yes,                                    !- Apply Sunday
  ,                                       !- Apply Monday
  ,                                       !- Apply Tuesday
  ,                                       !- Apply Wednesday
  ,                                       !- Apply Thursday
  ,                                       !- Apply Friday
  ,                                       !- Apply Saturday
  ,                                       !- Apply Holiday
  DateRange,                              !- Date Specification Type
  1,                                      !- Start Month
  1,                                      !- Start Day
  12,                                     !- End Month
  31;                                     !- End Day

OS:Schedule:Day,
  {dad97052-7416-454b-abd3-e373bd050882}, !- Handle
  0800|1900|AutoRepair|default|occ |1/1-12/31|Sun, !- Name
  {fad1bfcb-2166-4ad2-a7bd-87dd7eedd0b9}, !- Schedule Type Limits Name
  ,                                       !- Interpolate to Timestep
  24,                                     !- Hour 1
  0,                                      !- Minute 1
  0;                                      !- Value Until Time 1

OS:Schedule:Rule,
  {1503e591-d4b3-49d5-b387-4f91c3e95e54}, !- Handle
  0800|1900|AutoRepair|default|occ |1/1-12/31|Sat Rule, !- Name
  {a88ba5bc-c753-4845-966b-aeb3ae4cf6e4}, !- Schedule Ruleset Name
  1,                                      !- Rule Order
  {368e006b-8d2e-4b51-8c85-7806aad9957b}, !- Day Schedule Name
  ,                                       !- Apply Sunday
  ,                                       !- Apply Monday
  ,                                       !- Apply Tuesday
  ,                                       !- Apply Wednesday
  ,                                       !- Apply Thursday
  ,                                       !- Apply Friday
  Yes,                                    !- Apply Saturday
  ,                                       !- Apply Holiday
  DateRange,                              !- Date Specification Type
  1,                                      !- Start Month
  1,                                      !- Start Day
  12,                                     !- End Month
  31;                                     !- End Day

OS:Schedule:Day,
  {368e006b-8d2e-4b51-8c85-7806aad9957b}, !- Handle
  0800|1900|AutoRepair|default|occ |1/1-12/31|Sat, !- Name
  {fad1bfcb-2166-4ad2-a7bd-87dd7eedd0b9}, !- Schedule Type Limits Name
  ,                                       !- Interpolate to Timestep
  5,                                      !- Hour 1
  0,                                      !- Minute 1
  0,                                      !- Value Until Time 1
  5,                                      !- Hour 2
  30,                                     !- Minute 2
  0.04,                                   !- Value Until Time 2
  6,                                      !- Hour 3
  0,                                      !- Minute 3
  0.08,                                   !- Value Until Time 3
  6,                                      !- Hour 4
  30,                                     !- Minute 4
  0.13,                                   !- Value Until Time 4
  7,                                      !- Hour 5
  0,                                      !- Minute 5
  0.17,                                   !- Value Until Time 5
  7,                                      !- Hour 6
  30,                                     !- Minute 6
  0.21,                                   !- Value Until Time 6
  16,                                     !- Hour 7
  0,                                      !- Minute 7
  0.25,                                   !- Value Until Time 7
  16,                                     !- Hour 8
  30,                                     !- Minute 8
  0.22,                                   !- Value Until Time 8
  17,                                     !- Hour 9
  0,                                      !- Minute 9
  0.19,                                   !- Value Until Time 9
  17,                                     !- Hour 10
  30,                                     !- Minute 10
  0.16,                                   !- Value Until Time 10
  18,                                     !- Hour 11
  0,                                      !- Minute 11
  0.13,                                   !- Value Until Time 11
  18,                                     !- Hour 12
  30,                                     !- Minute 12
  0.09,                                   !- Value Until Time 12
  19,                                     !- Hour 13
  0,                                      !- Minute 13
  0.06,                                   !- Value Until Time 13
  19,                                     !- Hour 14
  30,                                     !- Minute 14
  0.03,                                   !- Value Until Time 14
  24,                                     !- Hour 15
  0,                                      !- Minute 15
  0;                                      !- Value Until Time 15

OS:Schedule:Ruleset,
  {2be48d8d-f039-4189-8244-dedc000d1cc8}, !- Handle
  0800|1900|AutoRepair|default|activity,  !- Name
  {227f7011-c0b6-4dfc-ba23-ad75b690d8bc}, !- Schedule Type Limits Name
  {8deb9f22-bc2c-4998-a13f-1d0bd1146d7d}, !- Default Day Schedule Name
  {5f68d2d6-ddaf-40fc-a330-23103a02aedb}, !- Summer Design Day Schedule Name
  {ebf52dc4-b364-4049-8c85-390002c857aa}; !- Winter Design Day Schedule Name

OS:ScheduleTypeLimits,
  {227f7011-c0b6-4dfc-ba23-ad75b690d8bc}, !- Handle
  People Activity Type Limits,            !- Name
  0,                                      !- Lower Limit Value {BasedOnField A4}
  ,                                       !- Upper Limit Value {BasedOnField A4}
  Continuous,                             !- Numeric Type
  ActivityLevel;                          !- Unit Type

OS:Schedule:Day,
  {8deb9f22-bc2c-4998-a13f-1d0bd1146d7d}, !- Handle
  0800|1900|AutoRepair|default|activity |default, !- Name
  {227f7011-c0b6-4dfc-ba23-ad75b690d8bc}, !- Schedule Type Limits Name
  ,                                       !- Interpolate to Timestep
  24,                                     !- Hour 1
  0,                                      !- Minute 1
  120;                                    !- Value Until Time 1

OS:Schedule:Day,
  {5f68d2d6-ddaf-40fc-a330-23103a02aedb}, !- Handle
  0800|1900|AutoRepair|default|activity Summer Design Day, !- Name
  {227f7011-c0b6-4dfc-ba23-ad75b690d8bc}, !- Schedule Type Limits Name
  ,                                       !- Interpolate to Timestep
  24,                                     !- Hour 1
  0,                                      !- Minute 1
  120;                                    !- Value Until Time 1

OS:Schedule:Day,
  {ebf52dc4-b364-4049-8c85-390002c857aa}, !- Handle
  0800|1900|AutoRepair|default|activity Winter Design Day, !- Name
  {227f7011-c0b6-4dfc-ba23-ad75b690d8bc}, !- Schedule Type Limits Name
  ,                                       !- Interpolate to Timestep
  24,                                     !- Hour 1
  0,                                      !- Minute 1
  120;                                    !- Value Until Time 1

OS:Schedule:Ruleset,
  {46cb0e91-31a6-46d1-9573-bc0e0566f39f}, !- Handle
  0800|1900|AutoRepair|default|work_eff,  !- Name
  {6b1fabc5-4a3e-4c17-9757-0734b1d1450f}, !- Schedule Type Limits Name
  {2492fc77-398f-42f0-8c73-5401d865d222}, !- Default Day Schedule Name
  {38a8d190-481c-415e-85de-24f32a771fed}, !- Summer Design Day Schedule Name
  {c2e95d83-4122-4ae2-888c-9d583f564f34}; !- Winter Design Day Schedule Name

OS:ScheduleTypeLimits,
  {6b1fabc5-4a3e-4c17-9757-0734b1d1450f}, !- Handle
  Fraction Schedule Type Limits,          !- Name
  0,                                      !- Lower Limit Value {BasedOnField A4}
  1,                                      !- Upper Limit Value {BasedOnField A4}
  Continuous,                             !- Numeric Type
  Dimensionless;                          !- Unit Type

OS:Schedule:Day,
  {2492fc77-398f-42f0-8c73-5401d865d222}, !- Handle
  0800|1900|AutoRepair|default|work_eff |default, !- Name
  {6b1fabc5-4a3e-4c17-9757-0734b1d1450f}, !- Schedule Type Limits Name
  ,                                       !- Interpolate to Timestep
  24,                                     !- Hour 1
  0,                                      !- Minute 1
  0;                                      !- Value Until Time 1

OS:Schedule:Day,