
OS:Version,
  {45397de3-bf74-4157-a17c-494952983640}, !- Handle
  1.6.0;                                  !- Version Identifier

OS:ClimateZones,
  {135edfab-17e7-40db-a436-27d385a8cd6d}, !- Handle
  ,                                       !- Active Institution
  ,                                       !- Active Year
  ASHRAE,                                 !- Climate Zone Institution Name 1
  ANSI/ASHRAE Standard 169,               !- Climate Zone Document Name 1
  2006,                                   !- Climate Zone Document Year 1
  ,                                       !- Climate Zone Value 1
  CEC,                                    !- Climate Zone Institution Name 2
  California Climate Zone Descriptions,   !- Climate Zone Document Name 2
  1995,                                   !- Climate Zone Document Year 2
  ;                                       !- Climate Zone Value 2

OS:YearDescription,
  {513d8dda-86cb-442a-b01c-1f7f0e0ac70e}; !- Handle

OS:RadianceParameters,
  {270a96f1-3c86-4b75-a667-cdf22790e2c8}, !- Handle
  1,                                      !- Accumulated Rays per Record
  0,                                      !- Direct Threshold
  1,                                      !- Direct Certainty
  1,                                      !- Direct Jitter
  1,                                      !- Direct Pretest
  6,                                      !- Ambient Bounces VMX
  2,                                      !- Ambient Bounces DMX
  4050,                                   !- Ambient Divisions VMX
  512,                                    !- Ambient Divisions DMX
  256,                                    !- Ambient Supersamples
  0.001,                                  !- Limit Weight VMX
  0.001,                                  !- Limit Weight DMX
  500,                                    !- Klems Sampling Density
  146;                                    !- Sky Discretization Resolution

OS:SimulationControl,
  {2c487a4c-bac9-4ac5-b669-1e49d9da7c2b}, !- Handle
  ,                                       !- Do Zone Sizing Calculation
  ,                                       !- Do System Sizing Calculation
  ,                                       !- Do Plant Sizing Calculation
  No,                                     !- Run Simulation for Sizing Periods
  ,                                       !- Run Simulation for Weather File Run Periods
  0.04,                                   !- Loads Convergence Tolerance Value
  ,                                       !- Temperature Convergence Tolerance Value {deltaC}
  ,                                       !- Solar Distribution
  ,                                       !- Maximum Number of Warmup Days
  2;                                      !- Minimum Number of Warmup Days

OS:Sizing:Parameters,
  {dde5af6f-7923-4600-a28a-7556673a0266}, !- Handle
  1.25,                                   !- Heating Sizing Factor
  1.15;                                   !- Cooling Sizing Factor

OS:ProgramControl,
  {05027a99-f2b3-4aeb-afc6-1425fbb4371d}; !- Handle

OS:Timestep,
  {4ebc9f1e-4707-402e-9844-67eb1ffbd522}, !- Handle
  2;                                      !- Number of Timesteps per Hour

OS:OutputControl:ReportingTolerances,
  {65797aa2-06a9-45fe-b69d-bc6e060399d3}; !- Handle

OS:ConvergenceLimits,
  {9fc11aba-8822-4f3d-970c-46391ba4040d}; !- Handle

OS:ShadowCalculation,
  {ca758bea-4416-4626-9bba-3d8795c79bd6}, !- Handle
  7,                                      !- Calculation Frequency
  15000;                                  !- Maximum Figures in Shadow Overlap Calculations

OS:SurfaceConvectionAlgorithm:Inside,
  {aaabfc36-718a-4ab0-b622-f186ebb45230}, !- Handle
  TARP;                                   !- Algorithm

OS:SurfaceConvectionAlgorithm:Outside,
  {9a0a9f6f-4bbd-4b12-a121-9492a1fcd7d6}, !- Handle
  DOE-2;                                  !- Algorithm

OS:HeatBalanceAlgorithm,
  {9d93e563-e1e0-46d7-9e39-d1c8aceb7212}, !- Handle
  ConductionTransferFunction,             !- Algorithm
  200;                                    !- Surface Temperature Upper Limit {F}

OS:ZoneAirHeatBalanceAlgorithm,
  {8520d93e-310f-4696-9bcd-36228bfdd743}, !- Handle
  AnalyticalSolution;                     !- Algorithm

OS:ZoneAirContaminantBalance,
  {eb5fc3ae-fb22-4160-8fcb-3e3b22b000d3}; !- Handle

OS:ZoneCapacitanceMultiplier:ResearchSpecial,
  {4020ce4f-5a7a-4849-8028-8305d7b751b1}, !- Handle
  ,                                       !- Temperature Capacity Multiplier
  ,                                       !- Humidity Capacity Multiplier
  ;                                       !- Carbon Dioxide Capacity Multiplier

OS:RunPeriod,
  {28df894d-6af9-4fb8-8f56-df1753344aa3}, !- Handle
  Run Period 1,                           !- Name
  1,                                      !- Begin Month
  1,                                      !- Begin Day of Month
  12,                                     !- End Month
  31,                                     !- End Day of Month
  ,                                       !- Use Weather File Holidays and Special Days
  ,                                       !- Use Weather File Daylight Saving Period
  ,                                       !- Apply Weekend Holiday Rule
  ,                                       !- Use Weather File Rain Indicators
  ,                                       !- Use Weather File Snow Indicators
  ;                                       !- Number of Times Runperiod to be Repeated

OS:Building,
  {bf305633-c5a1-4881-9edf-ca5e1a8e1274}, !- Handle
  Building 1,                             !- Name
  ,                                       !- Building Sector Type
  ,                                       !- North Axis {deg}
  ,                                       !- Nominal Floor to Floor Height {m}
  ,                                       !- Space Type Name
  ,                                       !- Default Construction Set Name
  {ae914cc2-dac6-4070-af4f-9b496579512c}, !- Default Schedule Set Name
  ,                                       !- Standards Number of Stories
  ,                                       !- Standards Number of Above Ground Stories
  AutoRepair;                             !- Standards Building Type

OS:LifeCycleCost:Parameters,
  {231cf8a0-f0e7-4251-a99f-11f0d464e661}, !- Handle
  FEMP,                                   !- Analysis Type
  ,                                       !- Discounting Convention
  ,                                       !- Inflation Approach
  ,                                       !- Real Discount Rate
  ,                                       !- Nominal Discount Rate
  ,                                       !- Inflation
  ,                                       !- Base Date Month
  ,                                       !- Base Date Year
  ,                                       !- Service Date Month
  ,                                       !- Service Date Year
  ,                                       !- Length of Study Period in Years
  ,                                       !- Tax Rate
  ,                                       !- Depreciation Method
  Yes;                                    !- Use NIST Fuel Escalation Rates

OS:Facility,
  {3ba8e45b-b833-44eb-a723-ea6c3946dc96}; !- Handle

OS:SpaceType,
  {46a1c485-27c2-43d3-ae14-c33058b7db49}, !- Handle
  AutoRepair|Garage|DOE Ref 1980-2004|ASHRAE 169-2006-5A, !- Name
  {4fb95edd-a77f-4566-8287-0e5dfd1bcbee}, !- Default Construction Set Name
  {d0a27b6a-af51-445f-a884-856d402404d7}, !- Default Schedule Set Name
  {77fb400a-9270-461a-8e83-6bf64af4a7c1}, !- Group Rendering Name
  {f33db831-3888-4d42-8bf5-7a55358d1a6b}, !- Design Specification Outdoor Air Object Name
  AutoRepair,                             !- Standards Building Type
  Garage;                                 !- Standards Space Type

OS:Rendering:Color,
  {77fb400a-9270-461a-8e83-6bf64af4a7c1}, !- Handle
  Rendering Color 1,                      !- Name
  120,                                    !- Rendering Red Value
  120,                                    !- Rendering Green Value
  120;                                    !- Rendering Blue Value

OS:SpaceType,
  {b7fad8d4-25ca-4d0e-b816-12049ddf9a64}, !- Handle
  AutoRepair|BlendFront|DOE Ref 1980-2004|ASHRAE 169-2006-5A, !- Name
  {4fb95edd-a77f-4566-8287-0e5dfd1bcbee}, !- Default Construction Set Name
  ,                                       !- Default Schedule Set Name
  {6cd23fb5-4347-44c2-a60e-392c37f1fd87}, !- Group Rendering Name
  {d4a3bcaf-28e8-4bb4-a016-203ee143b73f}, !- Design Specification Outdoor Air Object Name
  AutoRepair,                             !- Standards Building Type
  BlendFront;                             !- Standards Space Type

OS:Rendering:Color,
  {6cd23fb5-4347-44c2-a60e-392c37f1fd87}, !- Handle
  Rendering Color 2,                      !- Name
  230,                                    !- Rendering Red Value
  157,                                    !- Rendering Green Value
  120;                                    !- Rendering Blue Value

OS:SpaceType,
  {9d3ac711-b698-4179-82d9-ea80ab26e208}, !- Handle
  AutoRepair|Restroom|DOE Ref 1980-2004|ASHRAE 169-2006-5A, !- Name
  {4fb95edd-a77f-4566-8287-0e5dfd1bcbee}, !- Default Construction Set Name
  {97c83589-d10e-488a-ab62-544f653ca228}, !- Default Schedule Set Name
  {6487ca9d-ae80-49b7-915f-ffa52062809f}, !- Group Rendering Name
  {c8308f73-586c-4c5d-a3b3-c7c7fbe010f7}, !- Design Specification Outdoor Air Object Name
  AutoRepair,                             !- Standards Building Type
  Restroom;                               !- Standards Space Type

OS:Rendering:Color,
  {6487ca9d-ae80-49b7-915f-ffa52062809f}, !- Handle
  Rendering Color 3,                      !- Name
  169,                                    !- Rendering Red Value
  169,                                    !- Rendering Green Value
  31;                                     !- Rendering Blue Value

OS:Schedule:Ruleset,
  {4f72e357-2355-4911-a61a-331a60d11cfe}, !- Handle
  0800|1900|AutoRepair|default|hoo,       !- Name
  {028f485e-9444-4734-aa07-cd7bfde826ec}, !- Schedule Type Limits Name
  {3bdcde2f-4347-4e0a-9fd2-36c2afffcf22}, !- Default Day Schedule Name
  {b466f97e-fa8b-413d-8f9d-61d0254c74a5}, !- Summer Design Day Schedule Name
  {a4cb7469-dcc9-4853-b8e7-88f5894b6109}; !- Winter Design Day Schedule Name

OS:Schedule:Day,
  {3bdcde2f-4347-4e0a-9fd2-36c2afffcf22}, !- Handle
  0800|1900|AutoRepair|default|hoo Schedule Week Day, !- Name
  {028f485e-9444-4734-aa07-cd7bfde826ec}, !- Schedule Type Limits Name
  ,                                       !- Interpolate to Timestep
  8,                                      !- Hour 1
  0,                                      !- Minute 1
  0,                                      !- Value Until Time 1
  19,                                     !- Hour 2
  0,                                      !- Minute 2
  1,                                      !- Value Until Time 2
  24,                                     !- Hour 3
  0,                                      !- Minute 3
  0;                                      !- Value Until Time 3

OS:Schedule:Day,
  {d04e770a-9731-45f2-840f-91b6a9f6c357}, !- Handle
  Schedule Day 2,                         !- Name
  ,                                       !- Schedule Type Limits Name
  ,                                       !- Interpolate to Timestep
  24,                                     !- Hour 1
  0,                                      !- Minute 1
  0;                                      !- Value Until Time 1

OS:Schedule:Day,
  {a4cb7469-dcc9-4853-b8e7-88f5894b6109}, !- Handle
  0800|1900|AutoRepair|default|hoo Winter Design Day, !- Name
  {028f485e-9444-4734-aa07-cd7bfde826ec}, !- Schedule Type Limits Name
  ,                                       !- Interpolate to Timestep
  24,                                     !- Hour 1
  0,                                      !- Minute 1
  0;                                      !- Value Until Time 1

OS:Schedule:Day,
  {251b579a-36b3-4476-8095-243ad76d05c4}, !- Handle
  Schedule Day 3,                         !- Name
  ,                                       !- Schedule Type Limits Name
  ,                                       !- Interpolate to Timestep
  24,                                     !- Hour 1
  0,                                      !- Minute 1
  0;                                      !- Value Until Time 1

OS:Schedule:Day,
  {b466f97e-fa8b-413d-8f9d-61d0254c74a5}, !- Handle
  0800|1900|AutoRepair|default|hoo Summer Design Day, !- Name
  {028f485e-9444-4734-aa07-cd7bfde826ec}, !- Schedule Type Limits Name
  ,                                       !- Interpolate to Timestep
  24,                                     !- Hour 1
  0,                                      !- Minute 1
  1;                                      !- Value Until Time 1

OS:DefaultScheduleSet,
  {ae914cc2-dac6-4070-af4f-9b496579512c}, !- Handle
  Building Hours of Operation,            !- Name
  {4f72e357-2355-4911-a61a-331a60d11cfe}, !- Hours of Operation Schedule Name
  ,                                       !- Number of People Schedule Name
  ,                                       !- People Activity Level Schedule Name
  ,                                       !- Lighting Schedule Name
  ,                                       !- Electric Equipment Schedule Name
  ,                                       !- Gas Equipment Schedule Name
  ,                                       !- Hot Water Equipment Schedule Name
  ,                                       !- Infiltration Schedule Name
  ,                                       !- Steam Equipment Schedule Name
  ;                                       !- Other Equipment Schedule Name

OS:ScheduleTypeLimits,
  {028f485e-9444-4734-aa07-cd7bfde826ec}, !- Handle
  OnOff,                                  !- Name
  0,                                      !- Lower Limit Value {BasedOnField A4}
  1,                                      !- Upper Limit Value {BasedOnField A4}
  Discrete,                               !- Numeric Type
  Availability;                           !- Unit Type

OS:Schedule:Ruleset,
  {67522506-9e6f-414f-9100-2874fc1bb98e}, !- Handle
  0800|1900|AutoRepair|default|air_velocity, !- Name
  {f3bd53f5-28fc-4090-9ce9-851608d11825}, !- Schedule Type Limits Name
  {c80b1503-cf9a-4ef8-ab6e-4fbed624e6ee}, !- Default Day Schedule Name
  {b70c3143-6e96-4529-af03-dad256991792}, !- Summer Design Day Schedule Name
  {359c30b8-4c40-4f6b-b6f7-3b774c6187fc}; !- Winter Design Day Schedule Name

OS:ScheduleTypeLimits,
  {f3bd53f5-28fc-4090-9ce9-851608d11825}, !- Handle
  Dimensionless Schedule Type Limits,     !- Name
  ,                                       !- Lower Limit Value {BasedOnField A4}
  ,                                       !- Upper Limit Value {BasedOnField A4}
  Continuous,                             !- Numeric Type
  Dimensionless;                          !- Unit Type

OS:Schedule:Day,
  {c80b1503-cf9a-4ef8-ab6e-4fbed624e6ee}, !- Handle
  0800|1900|AutoRepair|default|air_velocity |default, !- Name
  {f3bd53f5-28fc-4090-9ce9-851608d11825}, !- Schedule Type Limits Name
  ,                                       !- Interpolate to Timestep
  24,                                     !- Hour 1
  0,                                      !- Minute 1
  0.200152;                               !- Value Until Time 1

OS:Schedule:Day,
  {b70c3143-6e96-4529-af03-dad256991792}, !- Handle
  0800|1900|AutoRepair|default|air_velocity Summer Design Day, !- Name
  {f3bd53f5-28fc-4090-9ce9-851608d11825}, !- Schedule Type Limits Name
  ,                                       !- Interpolate to Timestep
  24,                                     !- Hour 1
  0,                                      !- Minute 1
  0.200152;                               !- Value Until Time 1

OS:Schedule:Day,
  {359c30b8-4c40-4f6b-b6f7-3b774c6187fc}, !- Handle
  0800|1900|AutoRepair|default|air_velocity Winter Design Day, !- Name
  {f3bd53f5-28fc-4090-9ce9-851608d11825}, !- Schedule Type Limits Name
  ,                                       !- Interpolate to Timestep
  24,                                     !- Hour 1
  0,                                      !- Minute 1
  0.200152;                               !- Value Until Time 1

OS:Schedule:Ruleset,
  {37864f71-eba5-4fdb-92b5-41fa71c3ef87}, !- Handle
  0800|1900|AutoRepair|default|occ,       !- Name
  {8f43c554-f896-4b40-be67-40f5cb227c6b}, !- Schedule Type Limits Name
  {2665fe36-c92a-48fb-bda5-774cc4335420}, !- Default Day Schedule Name
  {b5de30f1-c5e2-44af-bdde-d86a0e7ce333}, !- Summer Design Day Schedule Name
  {8a01a8bc-97c9-44da-b054-16d0c7946249}; !- Winter Design Day Schedule Name

OS:ScheduleTypeLimits,
  {8f43c554-f896-4b40-be67-40f5cb227c6b}, !- Handle
  Occupancy Schedule Type Limits,         !- Name
  0,                                      !- Lower Limit Value {BasedOnField A4}
  1,                                      !- Upper Limit Value {BasedOnField A4}
  Continuous,                             !- Numeric Type
  Dimensionless;                          !- Unit Type

OS:Schedule:Day,
  {2665fe36-c92a-48fb-bda5-774cc4335420}, !- Handle
  0800|1900|AutoRepair|default|occ |default, !- Name
  {8f43c554-f896-4b40-be67-40f5cb227c6b}, !- Schedule Type Limits Name
  ,                                       !- Interpolate to Timestep
  5,                                      !- Hour 1
  0,                                      !- Minute 1
  0,                                      !- Value Until Time 1
  5,                                      !- Hour 2
  30,                                     !- Minute 2
  0.07,                                   !- Value Until Time 2
  6,                                      !- Hour 3
  0,                                      !- Minute 3
  0.13,                                   !- Value Until Time 3
  6,                                      !- Hour 4
  30,                                     !- Minute 4
  0.2,                                    !- Value Until Time 4
  7,                                      !- Hour 5
  0,                                      !- Minute 5
  0.27,                                   !- Value Until Time 5
  7,                                      !- Hour 6
  30,                                     !- Minute 6
  0.33,                                   !- Value Until Time 6
  23,                                     !- Hour 7
  0,                                      !- Minute 7
  0.4,                                    !- Value Until Time 7
  23,                                     !- Hour 8
  30,                                     !- Minute 8
  0.2,                                    !- Value Until Time 8
  24,                                     !- Hour 9
  0,                                      !- Minute 9
  0;                                      !- Value Until Time 9

OS:Schedule:Day,
  {b5de30f1-c5e2-44af-bdde-d86a0e7ce333}, !- Handle
  0800|1900|AutoRepair|default|occ Summer Design Day, !- Name
  {8f43c554-f896-4b40-be67-40f5cb227c6b}, !- Schedule Type Limits Name
  ,                                       !- Interpolate to Timestep
  5,                                      !- Hour 1
  0,                                      !- Minute 1
  0,                                      !- Value Until Time 1
  5,                                      !- Hour 2
  30,                                     !- Minute 2
  0.07,                                   !- Value Until Time 2
  6,                                      !- Hour 3
  0,                                      !- Minute 3
  0.13,                                   !- Value Until Time 3
  6,                                      !- Hour 4
  30,                                     !- Minute 4
  0.2,                                    !- Value Until Time 4
  7,                                      !- Hour 5
  0,                                      !- Minute 5
  0.27,                                   !- Value Until Time 5
  23,                                     !- Hour 6
  0,                                      !- Minute 6
  1,                                      !- Value Until Time 6
  23,                                     !- Hour 7
  30,                                     !- Minute 7
  0.2,                                    !- Value Until Time 7
  24,                                     !- Hour 8
  0,                                      !- Minute 8
  0;                                      !- Value Until Time 8

OS:Schedule:Day,
  {8a01a8bc-97c9-44da-b054-16d0c7946249}, !- Handle
  0800|1900|AutoRepair|default|occ Winter Design Day, !- Name
  {8f43c554-f896-4b40-be67-40f5cb227c6b}, !- Schedule Type Limits Name
  ,                                       !- Interpolate to Timestep
  24,                                     !- Hour 1
  0,                                      !- Minute 1
  0;                                      !- Value Until Time 1

OS:Schedule:Rule,
  {a912aaf3-7934-45b1-8cdc-32c66122681f}, !- Handle
  0800|1900|AutoRepair|default|occ |1/1-12/31|Sun Rule, !- Name
  {37864f71-eba5-4fdb-92b5-41fa71c3ef87}, !- Schedule Ruleset Name
  0,                                      !- Rule Order
  {5fa45359-e983-457a-a9f2-94f828a2c32d}, !- Day Schedule Name
  Yes,                                    !- Apply Sunday
  ,                                       !- Apply Monday
  ,                                       !- Apply Tuesday
  ,                                       !- Apply Wednesday
  ,                                       !- Apply Thursday
  ,                                       !- Apply Friday
  ,                                       !- Apply Saturday
  ,                                       !- Apply Holiday
  DateRange,                              !- Date Specification Type
  1,                                      !- Start Month
  1,                                      !- Start Day
  12,                                     !- End Month
  31;                                     !- End Day

OS:Schedule:Day,
  {5fa45359-e983-457a-a9f2-94f828a2c32d}, !- Handle
  0800|1900|AutoRepair|default|occ |1/1-12/31|Sun, !- Name
  {8f43c554-f896-4b40-be67-40f5cb227c6b}, !- Schedule Type Limits Name
  ,                                       !- Interpolate to Timestep
  24,                                     !- Hour 1
  0,                                      !- Minute 1
  0;                                      !- Value Until Time 1

OS:Schedule:Rule,
  {58da7b42-7c2c-40bd-9385-010b55656092}, !- Handle
  0800|1900|AutoRepair|default|occ |1/1-12/31|Sat Rule, !- Name
  {37864f71-eba5-4fdb-92b5-41fa71c3ef87}, !- Schedule Ruleset Name
  1,                                      !- Rule Order
  {75ed0561-27c4-4320-a71b-3c0fede5731d}, !- Day Schedule Name
  ,                                       !- Apply Sunday
  ,                                       !- Apply Monday
  ,                                       !- Apply Tuesday
  ,                                       !- Apply Wednesday
  ,                                       !- Apply Thursday
  ,                                       !- Apply Friday
  Yes,                                    !- Apply Saturday
  ,                                       !- Apply Holiday
  DateRange,                              !- Date Specification Type
  1,                                      !- Start Month
  1,                                      !- Start Day
  12,                                     !- End Month
  31;                                     !- End Day

OS:Schedule:Day,
  {75ed0561-27c4-4320-a71b-3c0fede5731d}, !- Handle
  0800|1900|AutoRepair|default|occ |1/1-12/31|Sat, !- Name
  {8f43c554-f896-4b40-be67-40f5cb227c6b}, !- Schedule Type Limits Name
  ,                                       !- Interpolate to Timestep
  5,                                      !- Hour 1
  0,                                      !- Minute 1
  0,                                      !- Value Until Time 1
  5,                                      !- Hour 2
  30,                                     !- Minute 2
  0.04,                                   !- Value Until Time 2
  6,                                      !- Hour 3
  0,                                      !- Minute 3
  0.08,                                   !- Value Until Time 3
  6,                                      !- Hour 4
  30,                                     !- Minute 4
  0.13,                                   !- Value Until Time 4
  7,                                      !- Hour 5
  0,                                      !- Minute 5
  0.17,                                   !- Value Until Time 5
  7,                                      !- Hour 6
  30,                                     !- Minute 6
  0.21,                                   !- Value Until Time 6
  16,                                     !- Hour 7
  0,                                      !- Minute 7
  0.25,                                   !- Value Until Time 7
  16,                                     !- Hour 8
  30,                                     !- Minute 8
  0.22,                                   !- Value Until Time 8
  17,                                     !- Hour 9
  0,                                      !- Minute 9
  0.19,                                   !- Value Until Time 9
  17,                                     !- Hour 10
  30,                                     !- Minute 10
  0.16,                                   !- Value Until Time 10
  18,                                     !- Hour 11
  0,                                      !- Minute 11
  0.13,                                   !- Value Until Time 11
  18,                                     !- Hour 12
  30,                                     !- Minute 12
  0.09,                                   !- Value Until Time 12
  19,                                     !- Hour 13
  0,                                      !- Minute 13
  0.06,                                   !- Value Until Time 13
  19,                                     !- Hour 14
  30,                                     !- Minute 14
  0.03,                                   !- Value Until Time 14
  24,                                     !- Hour 15
  0,                                      !- Minute 15
  0;                                      !- Value Until Time 15

OS:Schedule:Ruleset,
  {a9e863c9-78a5-4f7b-a5b6-ca39d0d15608}, !- Handle
  0800|1900|AutoRepair|default|activity,  !- Name
  {1dfb9df3-691b-43fd-ad4f-5cc4c48ee04a}, !- Schedule Type Limits Name
  {cceaaa3b-235c-4f67-98b5-ecfb6ffffcca}, !- Default Day Schedule Name
  {1f25e330-d00b-4873-b20e-a9f9d018b784}, !- Summer Design Day Schedule Name
  {ebcfe2b5-65e2-4d6b-8214-165cc9484dda}; !- Winter Design Day Schedule Name

OS:ScheduleTypeLimits,
  {1dfb9df3-691b-43fd-ad4f-5cc4c48ee04a}, !- Handle
  People Activity Type Limits,            !- Name
  0,                                      !- Lower Limit Value {BasedOnField A4}
  ,                                       !- Upper Limit Value {BasedOnField A4}
  Continuous,                             !- Numeric Type
  ActivityLevel;                          !- Unit Type

OS:Schedule:Day,
  {cceaaa3b-235c-4f67-98b5-ecfb6ffffcca}, !- Handle
  0800|1900|AutoRepair|default|activity |default, !- Name
  {1dfb9df3-691b-43fd-ad4f-5cc4c48ee04a}, !- Schedule Type Limits Name
  ,                                       !- Interpolate to Timestep
  24,                                     !- Hour 1
  0,                                      !- Minute 1
  120;                                    !- Value Until Time 1

OS:Schedule:Day,
  {1f25e330-d00b-4873-b20e-a9f9d018b784}, !- Handle
  0800|1900|AutoRepair|default|activity Summer Design Day, !- Name
  {1dfb9df3-691b-43fd-ad4f-5cc4c48ee04a}, !- Schedule Type Limits Name
  ,                                       !- Interpolate to Timestep
  24,                                     !- Hour 1
  0,                                      !- Minute 1
  120;                                    !- Value Until Time 1

OS:Schedule:Day,
  {ebcfe2b5-65e2-4d6b-8214-165cc9484dda}, !- Handle
  0800|1900|AutoRepair|default|activity Winter Design Day, !- Name
  {1dfb9df3-691b-43fd-ad4f-5cc4c48ee04a}, !- Schedule Type Limits Name
  ,                                       !- Interpolate to Timestep
  24,                                     !- Hour 1
  0,                                      !- Minute 1
  120;                                    !- Value Until Time 1

OS:Schedule:Ruleset,
  {49869ab1-f173-4ecb-9f82-2f487f9859cf}, !- Handle
  0800|1900|AutoRepair|default|work_eff,  !- Name
  {3e33a328-8af6-4b3a-add1-21872057c2c8}, !- Schedule Type Limits Name
  {b77e626e-e459-4892-b485-b3221025f3bd}, !- Default Day Schedule Name
  {7c521f08-0d68-423d-a083-a7c5fa218067}, !- Summer Design Day Schedule Name
  {3d954ec5-a0b5-42ee-ac50-b9c5a27b7de8}; !- Winter Design Day Schedule Name

OS:ScheduleTypeLimits,
  {3e33a328-8af6-4b3a-add1-21872057c2c8}, !- Handle
  Fraction Schedule Type Limits,          !- Name
  0,                                      !- Lower Limit Value {BasedOnField A4}
  1,                                      !- Upper Limit Value {BasedOnField A4}
  Continuous,                             !- Numeric Type
  Dimensionless;                          !- Unit Type

OS:Schedule:Day,
  {b77e626e-e459-4892-b485-b3221025f3bd}, !- Handle
  0800|1900|AutoRepair|default|work_eff |default, !- Name
  {3e33a328-8af6-4b3a-add1-21872057c2c8}, !- Schedule Type Limits Name
  ,                                       !- Interpolate to Timestep
  24,                                     !- Hour 1
  0,                                      !- Minute 1
  0;                                      !- Value Until Time 1

OS:Schedule:Day,