
OS:Version,
  {81718080-249c-46c8-847a-520c16141bd7}, !- Handle
  1.6.0;                                  !- Version Identifier

OS:ClimateZones,
  {135edfab-17e7-40db-a436-27d385a8cd6d}, !- Handle
  ,                                       !- Active Institution
  ,                                       !- Active Year
  ASHRAE,                                 !- Climate Zone Institution Name 1
  ANSI/ASHRAE Standard 169,               !- Climate Zone Document Name 1
  2006,                                   !- Climate Zone Document Year 1
  ,                                       !- Climate Zone Value 1
  CEC,                                    !- Climate Zone Institution Name 2
  California Climate Zone Descriptions,   !- Climate Zone Document Name 2
  1995,                                   !- Climate Zone Document Year 2
  ;                                       !- Climate Zone Value 2

OS:YearDescription,
  {513d8dda-86cb-442a-b01c-1f7f0e0ac70e}; !- Handle

OS:RadianceParameters,
  {270a96f1-3c86-4b75-a667-cdf22790e2c8}, !- Handle
  1,                                      !- Accumulated Rays per Record
  0,                                      !- Direct Threshold
  1,                                      !- Direct Certainty
  1,                                      !- Direct Jitter
  1,                                      !- Direct Pretest
  6,                                      !- Ambient Bounces VMX
  2,                                      !- Ambient Bounces DMX
  4050,                                   !- Ambient Divisions VMX
  512,                                    !- Ambient Divisions DMX
  256,                                    !- Ambient Supersamples
  0.001,                                  !- Limit Weight VMX
  0.001,                                  !- Limit Weight DMX
  500,                                    !- Klems Sampling Density
  146;                                    !- Sky Discretization Resolution

OS:SimulationControl,
  {2c487a4c-bac9-4ac5-b669-1e49d9da7c2b}, !- Handle
  ,                                       !- Do Zone Sizing Calculation
  ,                                       !- Do System Sizing Calculation
  ,                                       !- Do Plant Sizing Calculation
  No,                                     !- Run Simulation for Sizing Periods
  ,                                       !- Run Simulation for Weather File Run Periods
  0.04,                                   !- Loads Convergence Tolerance Value
  ,                                       !- Temperature Convergence Tolerance Value {deltaC}
  ,                                       !- Solar Distribution
  ,                                       !- Maximum Number of Warmup Days
  2;                                      !- Minimum Number of Warmup Days

OS:Sizing:Parameters,
  {dde5af6f-7923-4600-a28a-7556673a0266}, !- Handle
  1.25,                                   !- Heating Sizing Factor
  1.15;                                   !- Cooling Sizing Factor

OS:ProgramControl,
  {05027a99-f2b3-4aeb-afc6-1425fbb4371d}; !- Handle

OS:Timestep,
  {4ebc9f1e-4707-402e-9844-67eb1ffbd522}, !- Handle
  2;                                      !- Number of Timesteps per Hour

OS:OutputControl:ReportingTolerances,
  {65797aa2-06a9-45fe-b69d-bc6e060399d3}; !- Handle

OS:ConvergenceLimits,
  {9fc11aba-8822-4f3d-970c-46391ba4040d}; !- Handle

OS:ShadowCalculation,
  {ca758bea-4416-4626-9bba-3d8795c79bd6}, !- Handle
  7,                                      !- Calculation Frequency
  15000;                                  !- Maximum Figures in Shadow Overlap Calculations

OS:SurfaceConvectionAlgorithm:Inside,
  {aaabfc36-718a-4ab0-b622-f186ebb45230}, !- Handle
  TARP;                                   !- Algorithm

OS:SurfaceConvectionAlgorithm:Outside,
  {9a0a9f6f-4bbd-4b12-a121-9492a1fcd7d6}, !- Handle
  DOE-2;                                  !- Algorithm

OS:HeatBalanceAlgorithm,
  {9d93e563-e1e0-46d7-9e39-d1c8aceb7212}, !- Handle
  ConductionTransferFunction,             !- Algorithm
  200;                                    !- Surface Temperature Upper Limit {F}

OS:ZoneAirHeatBalanceAlgorithm,
  {8520d93e-310f-4696-9bcd-36228bfdd743}, !- Handle
  AnalyticalSolution;                     !- Algorithm

OS:ZoneAirContaminantBalance,
  {eb5fc3ae-fb22-4160-8fcb-3e3b22b000d3}; !- Handle

OS:ZoneCapacitanceMultiplier:ResearchSpecial,
  {4020ce4f-5a7a-4849-8028-8305d7b751b1}, !- Handle
  ,                                       !- Temperature Capacity Multiplier
  ,                                       !- Humidity Capacity Multiplier
  ;                                       !- Carbon Dioxide Capacity Multiplier

OS:RunPeriod,
  {28df894d-6af9-4fb8-8f56-df1753344aa3}, !- Handle
  Run Period 1,                           !- Name
  1,                                      !- Begin Month
  1,                                      !- Begin Day of Month
  12,                                     !- End Month
  31,                                     !- End Day of Month
  ,                                       !- Use Weather File Holidays and Special Days
  ,                                       !- Use Weather File Daylight Saving Period
  ,                                       !- Apply Weekend Holiday Rule
  ,                                       !- Use Weather File Rain Indicators
  ,                                       !- Use Weather File Snow Indicators
  ;                                       !- Number of Times Runperiod to be Repeated

OS:Building,
  {bf305633-c5a1-4881-9edf-ca5e1a8e1274}, !- Handle
  Building 1,                             !- Name
  ,                                       !- Building Sector Type
  ,                                       !- North Axis {deg}
  ,                                       !- Nominal Floor to Floor Height {m}
  ,                                       !- Space Type Name
  ,                                       !- Default Construction Set Name
  {f5fc52e4-4ba1-4826-893b-399434ef9237}, !- Default Schedule Set Name
  ,                                       !- Standards Number of Stories
  ,                                       !- Standards Number of Above Ground Stories
  AutoSales;                              !- Standards Building Type

OS:LifeCycleCost:Parameters,
  {231cf8a0-f0e7-4251-a99f-11f0d464e661}, !- Handle
  FEMP,                                   !- Analysis Type
  ,                                       !- Discounting Convention
  ,                                       !- Inflation Approach
  ,                                       !- Real Discount Rate
  ,                                       !- Nominal Discount Rate
  ,                                       !- Inflation
  ,                                       !- Base Date Month
  ,                                       !- Base Date Year
  ,                                       !- Service Date Month
  ,                                       !- Service Date Year
  ,                                       !- Length of Study Period in Years
  ,                                       !- Tax Rate
  ,                                       !- Depreciation Method
  Yes;                                    !- Use NIST Fuel Escalation Rates

OS:Facility,
  {3ba8e45b-b833-44eb-a723-ea6c3946dc96}; !- Handle

OS:SpaceType,
  {17ec3644-168f-4c5a-8a05-a4942120bd92}, !- Handle
  AutoSales|BlendFront|DOE Ref 2004|ASHRAE 169-2006-5A, !- Name
  {cf2e06c0-712d-4617-a176-0afa70f8267e}, !- Default Construction Set Name
  ,                                       !- Default Schedule Set Name
  {f0580e2b-df81-44b2-b37e-5313651d21ec}, !- Group Rendering Name
  {a699d249-d47a-43ee-9903-cdf5ada0a6d2}, !- Design Specification Outdoor Air Object Name
  AutoSales,                              !- Standards Building Type
  BlendFront;                             !- Standards Space Type

OS:Rendering:Color,
  {f0580e2b-df81-44b2-b37e-5313651d21ec}, !- Handle
  Rendering Color 1,                      !- Name
  120,                                    !- Rendering Red Value
  120,                                    !- Rendering Green Value
  120;                                    !- Rendering Blue Value

OS:SpaceType,
  {f8def2b2-2110-45c0-81de-33f9896463b1}, !- Handle
  AutoSales|Garage|DOE Ref 2004|ASHRAE 169-2006-5A, !- Name
  {cf2e06c0-712d-4617-a176-0afa70f8267e}, !- Default Construction Set Name
  {4bd5f844-3ad6-43d2-acfb-5fb997280e16}, !- Default Schedule Set Name
  {c8dbc840-8f91-49cc-9752-368fa51be121}, !- Group Rendering Name
  {510670af-018e-48ad-bc58-5ac77fe192e0}, !- Design Specification Outdoor Air Object Name
  AutoSales,                              !- Standards Building Type
  Garage;                                 !- Standards Space Type

OS:Rendering:Color,
  {c8dbc840-8f91-49cc-9752-368fa51be121}, !- Handle
  Rendering Color 2,                      !- Name
  120,                                    !- Rendering Red Value
  120,                                    !- Rendering Green Value
  120;                                    !- Rendering Blue Value

OS:SpaceType,
  {930f0b48-5889-4769-ac9a-4c094d1d3665}, !- Handle
  AutoSales|Restroom|DOE Ref 2004|ASHRAE 169-2006-5A, !- Name
  {cf2e06c0-712d-4617-a176-0afa70f8267e}, !- Default Construction Set Name
  {47adf25b-8632-47b8-961a-2577447211e8}, !- Default Schedule Set Name
  {b68d7493-991b-4995-9d35-31f66b87643a}, !- Group Rendering Name
  {0ce21a6a-f6c4-42e1-af69-ea8232baa483}, !- Design Specification Outdoor Air Object Name
  AutoSales,                              !- Standards Building Type
  Restroom;                               !- Standards Space Type

OS:Rendering:Color,
  {b68d7493-991b-4995-9d35-31f66b87643a}, !- Handle
  Rendering Color 3,                      !- Name
  169,                                    !- Rendering Red Value
  169,                                    !- Rendering Green Value
  31;                                     !- Rendering Blue Value

OS:Schedule:Ruleset,
  {1e66099c-37b3-4e19-aa32-b53914831698}, !- Handle
  0900|2000|AutoSales|default|hoo,        !- Name
  {f6978c6c-a5eb-47d9-8ede-cc1115d97187}, !- Schedule Type Limits Name
  {12c5f319-5d81-4a57-8f20-028af5d59e21}, !- Default Day Schedule Name
  {1650f521-0fd4-4737-9fe7-0b39600ca405}, !- Summer Design Day Schedule Name
  {5cd5dfc5-7f0a-4238-b822-37c41632ec9a}; !- Winter Design Day Schedule Name

OS:Schedule:Day,
  {12c5f319-5d81-4a57-8f20-028af5d59e21}, !- Handle
  0900|2000|AutoSales|default|hoo Schedule Week Day, !- Name
  {f6978c6c-a5eb-47d9-8ede-cc1115d97187}, !- Schedule Type Limits Name
  ,                                       !- Interpolate to Timestep
  9,                                      !- Hour 1
  0,                                      !- Minute 1
  0,                                      !- Value Until Time 1
  20,                                     !- Hour 2
  0,                                      !- Minute 2
  1,                                      !- Value Until Time 2
  24,                                     !- Hour 3
  0,                                      !- Minute 3
  0;                                      !- Value Until Time 3

OS:Schedule:Day,
  {226b0792-d375-48ae-8fea-94f09ecd9435}, !- Handle
  Schedule Day 2,                         !- Name
  ,                                       !- Schedule Type Limits Name
  ,                                       !- Interpolate to Timestep
  24,                                     !- Hour 1
  0,                                      !- Minute 1
  0;                                      !- Value Until Time 1

OS:Schedule:Day,
  {5cd5dfc5-7f0a-4238-b822-37c41632ec9a}, !- Handle
  0900|2000|AutoSales|default|hoo Winter Design Day, !- Name
  {f6978c6c-a5eb-47d9-8ede-cc1115d97187}, !- Schedule Type Limits Name
  ,                                       !- Interpolate to Timestep
  24,                                     !- Hour 1
  0,                                      !- Minute 1
  0;                                      !- Value Until Time 1

OS:Schedule:Day,
  {910609fe-586b-48a8-9dc7-c60a5911567a}, !- Handle
  Schedule Day 3,                         !- Name
  ,                                       !- Schedule Type Limits Name
  ,                                       !- Interpolate to Timestep
  24,                                     !- Hour 1
  0,                                      !- Minute 1
  0;                                      !- Value Until Time 1

OS:Schedule:Day,
  {1650f521-0fd4-4737-9fe7-0b39600ca405}, !- Handle
  0900|2000|AutoSales|default|hoo Summer Design Day, !- Name
  {f6978c6c-a5eb-47d9-8ede-cc1115d97187}, !- Schedule Type Limits Name
  ,                                       !- Interpolate to Timestep
  24,                                     !- Hour 1
  0,                                      !- Minute 1
  1;                                      !- Value Until Time 1

OS:DefaultScheduleSet,
  {f5fc52e4-4ba1-4826-893b-399434ef9237}, !- Handle
  Building Hours of Operation,            !- Name
  {1e66099c-37b3-4e19-aa32-b53914831698}, !- Hours of Operation Schedule Name
  ,                                       !- Number of People Schedule Name
  ,                                       !- People Activity Level Schedule Name
  ,                                       !- Lighting Schedule Name
  ,                                       !- Electric Equipment Schedule Name
  ,                                       !- Gas Equipment Schedule Name
  ,                                       !- Hot Water Equipment Schedule Name
  ,                                       !- Infiltration Schedule Name
  ,                                       !- Steam Equipment Schedule Name
  ;                                       !- Other Equipment Schedule Name

OS:ScheduleTypeLimits,
  {f6978c6c-a5eb-47d9-8ede-cc1115d97187}, !- Handle
  OnOff,                                  !- Name
  0,                                      !- Lower Limit Value {BasedOnField A4}
  1,                                      !- Upper Limit Value {BasedOnField A4}
  Discrete,                               !- Numeric Type
  Availability;                           !- Unit Type

OS:Schedule:Ruleset,
  {285c2329-558c-42e9-b33f-1d896dc1fa62}, !- Handle
  0900|2000|AutoSales|default|rh,         !- Name
  {ec1a9acd-7837-4233-a851-e37b77a00cfa}, !- Schedule Type Limits Name
  {595aea51-80f0-4d3c-87b2-2bdf4275769e}, !- Default Day Schedule Name
  {3046a814-b35c-46b3-982d-4be68dd840fc}, !- Summer Design Day Schedule Name
  {65d32d5c-ac95-41ab-85a5-2978b5fef664}; !- Winter Design Day Schedule Name

OS:ScheduleTypeLimits,
  {ec1a9acd-7837-4233-a851-e37b77a00cfa}, !- Handle
  Dimensionless Schedule Type Limits,     !- Name
  ,                                       !- Lower Limit Value {BasedOnField A4}
  ,                                       !- Upper Limit Value {BasedOnField A4}
  Continuous,                             !- Numeric Type
  Dimensionless;                          !- Unit Type

OS:Schedule:Day,
  {595aea51-80f0-4d3c-87b2-2bdf4275769e}, !- Handle
  0900|2000|AutoSales|default|rh |default, !- Name
  {ec1a9acd-7837-4233-a851-e37b77a00cfa}, !- Schedule Type Limits Name
  ,                                       !- Interpolate to Timestep
  24,                                     !- Hour 1
  0,                                      !- Minute 1
  50;                                     !- Value Until Time 1

OS:Schedule:Day,
  {3046a814-b35c-46b3-982d-4be68dd840fc}, !- Handle
  0900|2000|AutoSales|default|rh Summer Design Day, !- Name
  {ec1a9acd-7837-4233-a851-e37b77a00cfa}, !- Schedule Type Limits Name
  ,                                       !- Interpolate to Timestep
  24,                                     !- Hour 1
  0,                                      !- Minute 1
  50;                                     !- Value Until Time 1

OS:Schedule:Day,
  {65d32d5c-ac95-41ab-85a5-2978b5fef664}, !- Handle
  0900|2000|AutoSales|default|rh Winter Design Day, !- Name
  {ec1a9acd-7837-4233-a851-e37b77a00cfa}, !- Schedule Type Limits Name
  ,                                       !- Interpolate to Timestep
  24,                                     !- Hour 1
  0,                                      !- Minute 1
  50;                                     !- Value Until Time 1

OS:Schedule:Ruleset,
  {60fde227-ef72-4ace-9a41-0e2a9caec2bc}, !- Handle
  0900|2000|AutoSales|default|htg_setpoint, !- Name
  {82efa40a-b197-422d-b9e9-9891adf71797}, !- Schedule Type Limits Name
  {d829c6e3-41e1-4eab-8c26-2e9893779298}, !- Default Day Schedule Name
  {be7d8295-374a-48c6-b0de-7c22c0b1c178}, !- Summer Design Day Schedule Name
  {4525eaee-96f6-49ab-9e1b-d0f1c6bf27fc}; !- Winter Design Day Schedule Name

OS:ScheduleTypeLimits,
  {82efa40a-b197-422d-b9e9-9891adf71797}, !- Handle
  Thermostat Heating Setpoint Schedule Type Limits, !- Name
  0,                                      !- Lower Limit Value {BasedOnField A4}
  100,                                    !- Upper Limit Value {BasedOnField A4}
  Continuous,                             !- Numeric Type
  Temperature;                            !- Unit Type

OS:Schedule:Day,
  {d829c6e3-41e1-4eab-8c26-2e9893779298}, !- Handle
  0900|2000|AutoSales|default|htg_setpoint |default, !- Name
  {82efa40a-b197-422d-b9e9-9891adf71797}, !- Schedule Type Limits Name
  ,                                       !- Interpolate to Timestep
  24,                                     !- Hour 1
  0,                                      !- Minute 1
  21.0000000000001;                       !- Value Until Time 1

OS:Schedule:Day,
  {be7d8295-374a-48c6-b0de-7c22c0b1c178}, !- Handle
  0900|2000|AutoSales|default|htg_setpoint Summer Design Day, !- Name
  {82efa40a-b197-422d-b9e9-9891adf71797}, !- Schedule Type Limits Name
  ,                                       !- Interpolate to Timestep
  24,                                     !- Hour 1
  0,                                      !- Minute 1
  21.0000000000001;                       !- Value Until Time 1

OS:Schedule:Day,
  {4525eaee-96f6-49ab-9e1b-d0f1c6bf27fc}, !- Handle
  0900|2000|AutoSales|default|htg_setpoint Winter Design Day, !- Name
  {82efa40a-b197-422d-b9e9-9891adf71797}, !- Schedule Type Limits Name
  ,                                       !- Interpolate to Timestep
  24,                                     !- Hour 1
  0,                                      !- Minute 1
  21.0000000000001;                       !- Value Until Time 1

OS:Schedule:Rule,
  {67354556-a5a6-4803-a387-3a1d51b67369}, !- Handle
  0900|2000|AutoSales|default|htg_setpoint |1/1-12/31|Sun Rule, !- Name
  {60fde227-ef72-4ace-9a41-0e2a9caec2bc}, !- Schedule Ruleset Name
  0,                                      !- Rule Order
  {28103a03-8a1f-4636-a6ad-03f2c5a0e588}, !- Day Schedule Name
  Yes,                                    !- Apply Sunday
  ,                                       !- Apply Monday
  ,                                       !- Apply Tuesday
  ,                                       !- Apply Wednesday
  ,                                       !- Apply Thursday
  ,                                       !- Apply Friday
  ,                                       !- Apply Saturday
  ,                                       !- Apply Holiday
  DateRange,                              !- Date Specification Type
  1,                                      !- Start Month
  1,                                      !- Start Day
  12,                                     !- End Month
  31;                                     !- End Day

OS:Schedule:Day,
  {28103a03-8a1f-4636-a6ad-03f2c5a0e588}, !- Handle
  0900|2000|AutoSales|default|htg_setpoint |1/1-12/31|Sun, !- Name
  {82efa40a-b197-422d-b9e9-9891adf71797}, !- Schedule Type Limits Name
  ,                                       !- Interpolate to Timestep
  24,                                     !- Hour 1
  0,                                      !- Minute 1
  21.0000000000001;                       !- Value Until Time 1

OS:Schedule:Rule,
  {bf71aca9-ea11-4fb6-be8c-7339470cbd5d}, !- Handle
  0900|2000|AutoSales|default|htg_setpoint |1/1-12/31|Sat Rule, !- Name
  {60fde227-ef72-4ace-9a41-0e2a9caec2bc}, !- Schedule Ruleset Name
  1,                                      !- Rule Order
  {8560a9ae-cd93-4e03-9a1a-b7dd7b4ea661}, !- Day Schedule Name
  ,                                       !- Apply Sunday
  ,                                       !- Apply Monday
  ,                                       !- Apply Tuesday
  ,                                       !- Apply Wednesday
  ,                                       !- Apply Thursday
  ,                                       !- Apply Friday
  Yes,                                    !- Apply Saturday
  ,                                       !- Apply Holiday
  DateRange,                              !- Date Specification Type
  1,                                      !- Start Month
  1,                                      !- Start Day
  12,                                     !- End Month
  31;                                     !- End Day

OS:Schedule:Day,
  {8560a9ae-cd93-4e03-9a1a-b7dd7b4ea661}, !- Handle
  0900|2000|AutoSales|default|htg_setpoint |1/1-12/31|Sat, !- Name
  {82efa40a-b197-422d-b9e9-9891adf71797}, !- Schedule Type Limits Name
  ,                                       !- Interpolate to Timestep
  24,                                     !- Hour 1
  0,                                      !- Minute 1
  21.0000000000001;                       !- Value Until Time 1

OS:Schedule:Ruleset,
  {ddd82589-5791-45a5-be0c-ca06711fab6b}, !- Handle
  0900|2000|AutoSales|Garage|clg_setpoint, !- Name
  {2b2dde76-a740-48fb-ab90-d5fb2b802fa1}, !- Schedule Type Limits Name
  {dea07dfb-b04a-4ff0-982c-695454917c85}, !- Default Day Schedule Name
  {7df21c24-fbdb-4380-a6ad-9024f285601b}, !- Summer Design Day Schedule Name
  {1fcc3bf2-a239-4006-ab9a-9767f1fcbe25}; !- Winter Design Day Schedule Name

OS:ScheduleTypeLimits,
  {2b2dde76-a740-48fb-ab90-d5fb2b802fa1}, !- Handle
  Thermostat Cooling Setpoint Schedule Type Limits, !- Name
  0,                                      !- Lower Limit Value {BasedOnField A4}
  100,                                    !- Upper Limit Value {BasedOnField A4}
  Continuous,                             !- Numeric Type
  Temperature;                            !- Unit Type

OS:Schedule:Day,
  {dea07dfb-b04a-4ff0-982c-695454917c85}, !- Handle
  0900|2000|AutoSales|Garage|clg_setpoint |default, !- Name
  {2b2dde76-a740-48fb-ab90-d5fb2b802fa1}, !- Schedule Type Limits Name
  ,                                       !- Interpolate to Timestep
  24,                                     !- Hour 1
  0,                                      !- Minute 1
  26.6666666666667;                       !- Value Until Time 1

OS:Schedule:Day,
  {7df21c24-fbdb-4380-a6ad-9024f285601b}, !- Handle
  0900|2000|AutoSales|Garage|clg_setpoint Summer Design Day, !- Name
  {2b2dde76-a740-48fb-ab90-d5fb2b802fa1}, !- Schedule Type Limits Name
  ,                                       !- Interpolate to Timestep
  24,                                     !- Hour 1
  0,                                      !- Minute 1
  26.6666666666667;                       !- Value Until Time 1

OS:Schedule:Day,
  {1fcc3bf2-a239-4006-ab9a-9767f1fcbe25}, !- Handle
  0900|2000|AutoSales|Garage|clg_setpoint Winter Design Day, !- Name
  {2b2dde76-a740-48fb-ab90-d5fb2b802fa1}, !- Schedule Type Limits Name
  ,                                       !- Interpolate to Timestep
  24,                                     !- Hour 1
  0,                                      !- Minute 1
  26.6666666666667;                       !- Value Until Time 1

OS:Schedule:Rule,
  {c54e22b5-a471-4ac5-b84f-37ba4a57feb0}, !- Handle
  0900|2000|AutoSales|Garage|clg_setpoint |1/1-12/31|Sun Rule, !- Name
  {ddd82589-5791-45a5-be0c-ca06711fab6b}, !- Schedule Ruleset Name
  0,                                      !- Rule Order
  {04c73812-a56e-4ead-9879-ff0ccd2d9363}, !- Day Schedule Name
  Yes,                                    !- Apply Sunday
  ,                                       !- Apply Monday
  ,                                       !- Apply Tuesday
  ,                                       !- Apply Wednesday
  ,                                       !- Apply Thursday
  ,                                       !- Apply Friday
  ,                                       !- Apply Saturday
  ,                                       !- Apply Holiday
  DateRange,                              !- Date Specification Type
  1,                                      !- Start Month
  1,                                      !- Start Day
  12,                                     !- End Month
  31;                                     !- End Day

OS:Schedule:Day,
  {04c73812-a56e-4ead-9879-ff0ccd2d9363}, !- Handle
  0900|2000|AutoSales|Garage|clg_setpoint |1/1-12/31|Sun, !- Name
  {2b2dde76-a740-48fb-ab90-d5fb2b802fa1}, !- Schedule Type Limits Name
  ,                                       !- Interpolate to Timestep
  24,                                     !- Hour 1
  0,                                      !- Minute 1
  26.6666666666667;                       !- Value Until Time 1

OS:Schedule:Rule,
  {1f661305-509a-4d22-86b1-5927afd4f277}, !- Handle
  0900|2000|AutoSales|Garage|clg_setpoint |1/1-12/31|Sat Rule, !- Name
  {ddd82589-5791-45a5-be0c-ca06711fab6b}, !- Schedule Ruleset Name
  1,                                      !- Rule Order
  {c77c390b-c616-4fa3-a2b7-0a79a2e8865d}, !- Day Schedule Name
  ,                                       !- Apply Sunday
  ,                                       !- Apply Monday
  ,                                       !- Apply Tuesday
  ,                                       !- Apply Wednesday
  ,                                       !- Apply Thursday
  ,                                       !- Apply Friday
  Yes,                                    !- Apply Saturday
  ,                                       !- Apply Holiday
  DateRange,                              !- Date Specification Type
  1,                                      !- Start Month
  1,                                      !- Start Day
  12,                                     !- End Month
  31;                                     !- End Day

OS:Schedule:Day,
  {c77c390b-c616-4fa3-a2b7-0a79a2e8865d}, !- Handle
  0900|2000|AutoSales|Garage|clg_setpoint |1/1-12/31|Sat, !- Name
  {2b2dde76-a740-48fb-ab90-d5fb2b802fa1}, !- Schedule Type Limits Name
  ,                                       !- Interpolate to Timestep
  24,                                     !- Hour 1
  0,                                      !- Minute 1
  26.6666666666667;                       !- Value Until Time 1

OS:Schedule:Ruleset,
  {e697ea31-0afc-4ae9-aa62-d5f1e41ad19d}, !- Handle
  0900|2000|AutoSales|default|thermal_ctrl, !- Name
  {ec1a9acd-7837-4233-a851-e37b77a00cfa}, !- Schedule Type Limits Name
  {2c5ac01a-0865-44b3-baf1-f13c1dafdf79}, !- Default Day Schedule Name
  {3884c51d-a6d9-4811-b7e4-8e5cebeb4e2e}, !- Summer Design Day Schedule Name
  {235cc579-25c6-45ce-a60f-374255b62d88}; !- Winter Design Day Schedule Name

OS:Schedule:Day,
  {2c5ac01a-0865-44b3-baf1-f13c1dafdf79}, !- Handle
  0900|2000|AutoSales|default|thermal_ctrl |default, !- Name
  {ec1a9acd-7837-4233-a851-e37b77a00cfa}, !- Schedule Type Limits Name
  ,                                       !- Interpolate to Timestep
  24,                                     !- Hour 1
  0,                                      !- Minute 1
  4;                                      !- Value Until Time 1

OS:Schedule:Day,
  {3884c51d-a6d9-4811-b7e4-8e5cebeb4e2e}, !- Handle
  0900|2000|AutoSales|default|thermal_ctrl Summer Design Day, !- Name
  {ec1a9acd-7837-4233-a851-e37b77a00cfa}, !- Schedule Type Limits Name
  ,                                       !- Interpolate to Timestep
  24,                                     !- Hour 1
  0,                                      !- Minute 1
  4;                                      !- Value Until Time 1

OS:Schedule:Day,
  {235cc579-25c6-45ce-a60f-374255b62d88}, !- Handle
  0900|2000|AutoSales|default|thermal_ctrl Winter Design Day, !- Name
  {ec1a9acd-7837-4233-a851-e37b77a00cfa}, !- Schedule Type Limits Name
  ,                                       !- Interpolate to Timestep
  24,                                     !- Hour 1
  0,                                      !- Minute 1
  4;                                      !- Value Until Time 1

OS:Schedule:Ruleset,
  {bf9442d6-9798-4195-a148-621fbfd30e01}, !- Handle
  0900|2000|AutoSales|default|elec_equip, !- Name
  {0e55ce49-01aa-4c42-a865-6755ca33bd0b}, !- Schedule Type Limits Name
  {e5abd5c7-9bd9-401d-9a7a-44ab4d706579}, !- Default Day Schedule Name
  {fe398be8-dac7-4a6b-b70a-5f64d365e194}, !- Summer Design Day Schedule Name
  {2d4794ea-a406-499f-9ae4-deeccadf3ef8}; !- Winter Design Day Schedule Name

OS:ScheduleTypeLimits,
  {0e55ce49-01aa-4c42-a865-6755ca33bd0b}, !- Handle
  Equipment Schedule Type Limits,         !- Name
  0,                                      !- Lower Limit Value {BasedOnField A4}
  1,                                      !- Upper Limit Value {BasedOnField A4}
  Continuous,                             !- Numeric Type
  Dimensionless;                          !- Unit Type

OS:Schedule:Day,
  {e5abd5c7-9bd9-401d-9a7a-44ab4d706579}, !- Handle
  0900|2000|AutoSales|default|elec_equip |default, !- Name
  {0e55ce49-01aa-4c42-a865-6755ca33bd0b}, !- Schedule Type Limits Name
  ,                                       !- Interpolate to Timestep
  0,                                      !- Hour 1
  30,                                     !- Minute 1
  0.79,                                   !- Value Until Time 1
  1,                                      !- Hour 2
  0,                                      !- Minute 2