
OS:Version,
  {b175b2da-a370-418e-baf8-7ef4a75fcb9b}, !- Handle
  1.5.5;                                  !- Version Identifier

OS:ClimateZones,
  {135edfab-17e7-40db-a436-27d385a8cd6d}, !- Handle
  ,                                       !- Active Institution
  ,                                       !- Active Year
  ASHRAE,                                 !- Climate Zone Institution Name 1
  ANSI/ASHRAE Standard 169,               !- Climate Zone Document Name 1
  2006,                                   !- Climate Zone Document Year 1
  ,                                       !- Climate Zone Value 1
  CEC,                                    !- Climate Zone Institution Name 2
  California Climate Zone Descriptions,   !- Climate Zone Document Name 2
  1995,                                   !- Climate Zone Document Year 2
  ;                                       !- Climate Zone Value 2

OS:YearDescription,
  {513d8dda-86cb-442a-b01c-1f7f0e0ac70e}; !- Handle

OS:RadianceParameters,
  {270a96f1-3c86-4b75-a667-cdf22790e2c8}, !- Handle
  1,                                      !- Accumulated Rays per Record
  0,                                      !- Direct Threshold
  1,                                      !- Direct Certainty
  1,                                      !- Direct Jitter
  1,                                      !- Direct Pretest
  6,                                      !- Ambient Bounces VMX
  2,                                      !- Ambient Bounces DMX
  4050,                                   !- Ambient Divisions VMX
  512,                                    !- Ambient Divisions DMX
  256,                                    !- Ambient Supersamples
  0.001,                                  !- Limit Weight VMX
  0.001,                                  !- Limit Weight DMX
  500,                                    !- Klems Sampling Density
  146;                                    !- Sky Discretization Resolution

OS:SimulationControl,
  {2c487a4c-bac9-4ac5-b669-1e49d9da7c2b}, !- Handle
  ,                                       !- Do Zone Sizing Calculation
  ,                                       !- Do System Sizing Calculation
  ,                                       !- Do Plant Sizing Calculation
  No,                                     !- Run Simulation for Sizing Periods
  ,                                       !- Run Simulation for Weather File Run Periods
  0.04,                                   !- Loads Convergence Tolerance Value
  ,                                       !- Temperature Convergence Tolerance Value {deltaC}
  ,                                       !- Solar Distribution
  ,                                       !- Maximum Number of Warmup Days
  2;                                      !- Minimum Number of Warmup Days

OS:Sizing:Parameters,
  {dde5af6f-7923-4600-a28a-7556673a0266}, !- Handle
  1.25,                                   !- Heating Sizing Factor
  1.15;                                   !- Cooling Sizing Factor

OS:ProgramControl,
  {05027a99-f2b3-4aeb-afc6-1425fbb4371d}; !- Handle

OS:Timestep,
  {4ebc9f1e-4707-402e-9844-67eb1ffbd522}, !- Handle
  2;                                      !- Number of Timesteps per Hour

OS:OutputControl:ReportingTolerances,
  {65797aa2-06a9-45fe-b69d-bc6e060399d3}; !- Handle

OS:ConvergenceLimits,
  {9fc11aba-8822-4f3d-970c-46391ba4040d}; !- Handle

OS:ShadowCalculation,
  {ca758bea-4416-4626-9bba-3d8795c79bd6}, !- Handle
  7,                                      !- Calculation Frequency
  15000;                                  !- Maximum Figures in Shadow Overlap Calculations

OS:SurfaceConvectionAlgorithm:Inside,
  {aaabfc36-718a-4ab0-b622-f186ebb45230}, !- Handle
  TARP;                                   !- Algorithm

OS:SurfaceConvectionAlgorithm:Outside,
  {9a0a9f6f-4bbd-4b12-a121-9492a1fcd7d6}, !- Handle
  DOE-2;                                  !- Algorithm

OS:HeatBalanceAlgorithm,
  {9d93e563-e1e0-46d7-9e39-d1c8aceb7212}, !- Handle
  ConductionTransferFunction,             !- Algorithm
  200;                                    !- Surface Temperature Upper Limit {F}

OS:ZoneAirHeatBalanceAlgorithm,
  {8520d93e-310f-4696-9bcd-36228bfdd743}, !- Handle
  AnalyticalSolution;                     !- Algorithm

OS:ZoneAirContaminantBalance,
  {eb5fc3ae-fb22-4160-8fcb-3e3b22b000d3}; !- Handle

OS:ZoneCapacitanceMultiplier:ResearchSpecial,
  {4020ce4f-5a7a-4849-8028-8305d7b751b1}, !- Handle
  ,                                       !- Temperature Capacity Multiplier
  ,                                       !- Humidity Capacity Multiplier
  ;                                       !- Carbon Dioxide Capacity Multiplier

OS:RunPeriod,
  {28df894d-6af9-4fb8-8f56-df1753344aa3}, !- Handle
  Run Period 1,                           !- Name
  1,                                      !- Begin Month
  1,                                      !- Begin Day of Month
  12,                                     !- End Month
  31,                                     !- End Day of Month
  ,                                       !- Use Weather File Holidays and Special Days
  ,                                       !- Use Weather File Daylight Saving Period
  ,                                       !- Apply Weekend Holiday Rule
  ,                                       !- Use Weather File Rain Indicators
  ,                                       !- Use Weather File Snow Indicators
  ;                                       !- Number of Times Runperiod to be Repeated

OS:Building,
  {bf305633-c5a1-4881-9edf-ca5e1a8e1274}, !- Handle
  Building 1,                             !- Name
  ,                                       !- Building Sector Type
  ,                                       !- North Axis {deg}
  ,                                       !- Nominal Floor to Floor Height {m}
  ,                                       !- Space Type Name
  ,                                       !- Default Construction Set Name
  {eeca0e1b-4b9c-4a76-b279-1bc75b8a4997}, !- Default Schedule Set Name
  ,                                       !- Standards Number of Stories
  ,                                       !- Standards Number of Above Ground Stories
  AutoSales;                              !- Standards Building Type

OS:LifeCycleCost:Parameters,
  {231cf8a0-f0e7-4251-a99f-11f0d464e661}, !- Handle
  FEMP,                                   !- Analysis Type
  ,                                       !- Discounting Convention
  ,                                       !- Inflation Approach
  ,                                       !- Real Discount Rate
  ,                                       !- Nominal Discount Rate
  ,                                       !- Inflation
  ,                                       !- Base Date Month
  ,                                       !- Base Date Year
  ,                                       !- Service Date Month
  ,                                       !- Service Date Year
  ,                                       !- Length of Study Period in Years
  ,                                       !- Tax Rate
  ,                                       !- Depreciation Method
  Yes;                                    !- Use NIST Fuel Escalation Rates

OS:Facility,
  {3ba8e45b-b833-44eb-a723-ea6c3946dc96}; !- Handle

OS:SpaceType,
  {5cd1f74c-d149-4e19-9a0c-2d6e8ff3a0ac}, !- Handle
  AutoSales|BlendFront|DOE Ref 1980-2004|ASHRAE 169-2006-5A, !- Name
  {5c592f8b-5a59-4c80-9444-9164d0f38336}, !- Default Construction Set Name
  ,                                       !- Default Schedule Set Name
  {2455585b-60a9-4a24-81e1-53d22e0aa2bc}, !- Group Rendering Name
  {55b8de6e-fbfa-4bc3-9603-582fa8d2315f}, !- Design Specification Outdoor Air Object Name
  AutoSales,                              !- Standards Building Type
  BlendFront;                             !- Standards Space Type

OS:Rendering:Color,
  {2455585b-60a9-4a24-81e1-53d22e0aa2bc}, !- Handle
  Rendering Color 1,                      !- Name
  120,                                    !- Rendering Red Value
  120,                                    !- Rendering Green Value
  120;                                    !- Rendering Blue Value

OS:SpaceType,
  {cb341b37-3aab-45d2-a8c1-01f49c6bbe42}, !- Handle
  AutoSales|Garage|DOE Ref 1980-2004|ASHRAE 169-2006-5A, !- Name
  {5c592f8b-5a59-4c80-9444-9164d0f38336}, !- Default Construction Set Name
  {e476f5c9-44b2-4020-a944-821d7ad9f5b9}, !- Default Schedule Set Name
  {9c652ad8-6f3f-4218-8138-ccb02123ceca}, !- Group Rendering Name
  {2a1c14ed-3393-4221-92e4-52f7af4f8aa6}, !- Design Specification Outdoor Air Object Name
  AutoSales,                              !- Standards Building Type
  Garage;                                 !- Standards Space Type

OS:Rendering:Color,
  {9c652ad8-6f3f-4218-8138-ccb02123ceca}, !- Handle
  Rendering Color 2,                      !- Name
  120,                                    !- Rendering Red Value
  120,                                    !- Rendering Green Value
  120;                                    !- Rendering Blue Value

OS:SpaceType,
  {10edf8e3-36e5-4823-9941-4de9fca7b16f}, !- Handle
  AutoSales|Restroom|DOE Ref 1980-2004|ASHRAE 169-2006-5A, !- Name
  {5c592f8b-5a59-4c80-9444-9164d0f38336}, !- Default Construction Set Name
  {da2b5082-72dc-4a3c-97dd-e09263587f32}, !- Default Schedule Set Name
  {f6525472-bf97-4534-905a-b089efac405c}, !- Group Rendering Name
  {ff5cd47c-49c3-4ccb-b593-e809aae2f2bc}, !- Design Specification Outdoor Air Object Name
  AutoSales,                              !- Standards Building Type
  Restroom;                               !- Standards Space Type

OS:Rendering:Color,
  {f6525472-bf97-4534-905a-b089efac405c}, !- Handle
  Rendering Color 3,                      !- Name
  169,                                    !- Rendering Red Value
  169,                                    !- Rendering Green Value
  31;                                     !- Rendering Blue Value

OS:Schedule:Ruleset,
  {f6072bb8-5412-4ebf-be30-4f8aa5fa7686}, !- Handle
  0900|2000|AutoSales|default|hoo,        !- Name
  {aaa0aeb0-1f48-4f78-97ec-196bbc487273}, !- Schedule Type Limits Name
  {bfdd110e-57f1-4d2e-ac34-301f1f0c17c5}, !- Default Day Schedule Name
  {a404f9c3-85bc-43fa-a0a1-529defc05ab3}, !- Summer Design Day Schedule Name
  {daf7da59-8fa9-413e-adb0-db7b02c86097}; !- Winter Design Day Schedule Name

OS:Schedule:Day,
  {bfdd110e-57f1-4d2e-ac34-301f1f0c17c5}, !- Handle
  0900|2000|AutoSales|default|hoo Schedule Week Day, !- Name
  {aaa0aeb0-1f48-4f78-97ec-196bbc487273}, !- Schedule Type Limits Name
  ,                                       !- Interpolate to Timestep
  9,                                      !- Hour 1
  0,                                      !- Minute 1
  0,                                      !- Value Until Time 1
  20,                                     !- Hour 2
  0,                                      !- Minute 2
  1,                                      !- Value Until Time 2
  24,                                     !- Hour 3
  0,                                      !- Minute 3
  0;                                      !- Value Until Time 3

OS:Schedule:Day,
  {b6336621-a13a-439e-b885-8db6712c98b9}, !- Handle
  Schedule Day 2,                         !- Name
  ,                                       !- Schedule Type Limits Name
  ,                                       !- Interpolate to Timestep
  24,                                     !- Hour 1
  0,                                      !- Minute 1
  0;                                      !- Value Until Time 1

OS:Schedule:Day,
  {daf7da59-8fa9-413e-adb0-db7b02c86097}, !- Handle
  0900|2000|AutoSales|default|hoo Winter Design Day, !- Name
  {aaa0aeb0-1f48-4f78-97ec-196bbc487273}, !- Schedule Type Limits Name
  ,                                       !- Interpolate to Timestep
  24,                                     !- Hour 1
  0,                                      !- Minute 1
  0;                                      !- Value Until Time 1

OS:Schedule:Day,
  {db2be231-669a-47e6-9402-5e48cb8fda89}, !- Handle
  Schedule Day 3,                         !- Name
  ,                                       !- Schedule Type Limits Name
  ,                                       !- Interpolate to Timestep
  24,                                     !- Hour 1
  0,                                      !- Minute 1
  0;                                      !- Value Until Time 1

OS:Schedule:Day,
  {a404f9c3-85bc-43fa-a0a1-529defc05ab3}, !- Handle
  0900|2000|AutoSales|default|hoo Summer Design Day, !- Name
  {aaa0aeb0-1f48-4f78-97ec-196bbc487273}, !- Schedule Type Limits Name
  ,                                       !- Interpolate to Timestep
  24,                                     !- Hour 1
  0,                                      !- Minute 1
  1;                                      !- Value Until Time 1

OS:DefaultScheduleSet,
  {eeca0e1b-4b9c-4a76-b279-1bc75b8a4997}, !- Handle
  Building Hours of Operation,            !- Name
  {f6072bb8-5412-4ebf-be30-4f8aa5fa7686}, !- Hours of Operation Schedule Name
  ,                                       !- Number of People Schedule Name
  ,                                       !- People Activity Level Schedule Name
  ,                                       !- Lighting Schedule Name
  ,                                       !- Electric Equipment Schedule Name
  ,                                       !- Gas Equipment Schedule Name
  ,                                       !- Hot Water Equipment Schedule Name
  ,                                       !- Infiltration Schedule Name
  ,                                       !- Steam Equipment Schedule Name
  ;                                       !- Other Equipment Schedule Name

OS:ScheduleTypeLimits,
  {aaa0aeb0-1f48-4f78-97ec-196bbc487273}, !- Handle
  OnOff,                                  !- Name
  0,                                      !- Lower Limit Value {BasedOnField A4}
  1,                                      !- Upper Limit Value {BasedOnField A4}
  Discrete,                               !- Numeric Type
  Availability;                           !- Unit Type

OS:Schedule:Ruleset,
  {a9353514-6054-42a2-8181-60ddb00713cf}, !- Handle
  0900|2000|AutoSales|Garage|infiltration, !- Name
  {5f556af8-7039-4027-afa7-00aa8120920c}, !- Schedule Type Limits Name
  {92d64db7-25b1-4da4-a2a7-f8c76f602336}, !- Default Day Schedule Name
  {8e5ad74f-5caf-4e09-9c19-f91aedb72ad8}, !- Summer Design Day Schedule Name
  {52c98246-df17-4ae4-8c16-9fc87f59f7b8}; !- Winter Design Day Schedule Name

OS:ScheduleTypeLimits,
  {5f556af8-7039-4027-afa7-00aa8120920c}, !- Handle
  Fraction Schedule Type Limits,          !- Name
  0,                                      !- Lower Limit Value {BasedOnField A4}
  1,                                      !- Upper Limit Value {BasedOnField A4}
  Continuous,                             !- Numeric Type
  Dimensionless;                          !- Unit Type

OS:Schedule:Day,
  {92d64db7-25b1-4da4-a2a7-f8c76f602336}, !- Handle
  0900|2000|AutoSales|Garage|infiltration |default, !- Name
  {5f556af8-7039-4027-afa7-00aa8120920c}, !- Schedule Type Limits Name
  ,                                       !- Interpolate to Timestep
  24,                                     !- Hour 1
  0,                                      !- Minute 1
  1;                                      !- Value Until Time 1

OS:Schedule:Day,
  {8e5ad74f-5caf-4e09-9c19-f91aedb72ad8}, !- Handle
  0900|2000|AutoSales|Garage|infiltration Summer Design Day, !- Name
  {5f556af8-7039-4027-afa7-00aa8120920c}, !- Schedule Type Limits Name
  ,                                       !- Interpolate to Timestep
  24,                                     !- Hour 1
  0,                                      !- Minute 1
  1;                                      !- Value Until Time 1

OS:Schedule:Day,
  {52c98246-df17-4ae4-8c16-9fc87f59f7b8}, !- Handle
  0900|2000|AutoSales|Garage|infiltration Winter Design Day, !- Name
  {5f556af8-7039-4027-afa7-00aa8120920c}, !- Schedule Type Limits Name
  ,                                       !- Interpolate to Timestep
  24,                                     !- Hour 1
  0,                                      !- Minute 1
  1;                                      !- Value Until Time 1

OS:Schedule:Rule,
  {eb01b54f-3a06-4526-8a3e-2636e3f955de}, !- Handle
  0900|2000|AutoSales|Garage|infiltration |1/1-12/31|Sun Rule, !- Name
  {a9353514-6054-42a2-8181-60ddb00713cf}, !- Schedule Ruleset Name
  0,                                      !- Rule Order
  {d810e4bd-ca50-4f9b-9dac-2d4b4295f54e}, !- Day Schedule Name
  Yes,                                    !- Apply Sunday
  ,                                       !- Apply Monday
  ,                                       !- Apply Tuesday
  ,                                       !- Apply Wednesday
  ,                                       !- Apply Thursday
  ,                                       !- Apply Friday
  ,                                       !- Apply Saturday
  ,                                       !- Apply Holiday
  DateRange,                              !- Date Specification Type
  1,                                      !- Start Month
  1,                                      !- Start Day
  12,                                     !- End Month
  31;                                     !- End Day

OS:Schedule:Day,
  {d810e4bd-ca50-4f9b-9dac-2d4b4295f54e}, !- Handle
  0900|2000|AutoSales|Garage|infiltration |1/1-12/31|Sun, !- Name
  {5f556af8-7039-4027-afa7-00aa8120920c}, !- Schedule Type Limits Name
  ,                                       !- Interpolate to Timestep
  24,                                     !- Hour 1
  0,                                      !- Minute 1
  1;                                      !- Value Until Time 1

OS:Schedule:Rule,
  {de039d1a-b2a3-4054-8058-bd5ad27615de}, !- Handle
  0900|2000|AutoSales|Garage|infiltration |1/1-12/31|Sat Rule, !- Name
  {a9353514-6054-42a2-8181-60ddb00713cf}, !- Schedule Ruleset Name
  1,                                      !- Rule Order
  {2b9a368e-e05a-4d3d-a3ac-020a20228fbf}, !- Day Schedule Name
  ,                                       !- Apply Sunday
  ,                                       !- Apply Monday
  ,                                       !- Apply Tuesday
  ,                                       !- Apply Wednesday
  ,                                       !- Apply Thursday
  ,                                       !- Apply Friday
  Yes,                                    !- Apply Saturday
  ,                                       !- Apply Holiday
  DateRange,                              !- Date Specification Type
  1,                                      !- Start Month
  1,                                      !- Start Day
  12,                                     !- End Month
  31;                                     !- End Day

OS:Schedule:Day,
  {2b9a368e-e05a-4d3d-a3ac-020a20228fbf}, !- Handle
  0900|2000|AutoSales|Garage|infiltration |1/1-12/31|Sat, !- Name
  {5f556af8-7039-4027-afa7-00aa8120920c}, !- Schedule Type Limits Name
  ,                                       !- Interpolate to Timestep
  24,                                     !- Hour 1
  0,                                      !- Minute 1
  1;                                      !- Value Until Time 1

OS:Schedule:Ruleset,
  {55b0befa-1580-4dc7-88c6-efe6ec8bbb4b}, !- Handle
  0900|2000|AutoSales|default|clothing,   !- Name
  {e7652da1-b0f9-4030-ab7e-f429f6376260}, !- Schedule Type Limits Name
  {93d1e73a-6f22-41be-a65d-037255ab28c5}, !- Default Day Schedule Name
  {9130ea1c-9c0f-4c9e-a054-a9ed0213de6d}, !- Summer Design Day Schedule Name
  {c2beda52-5404-4035-8251-54fc4e8005fa}; !- Winter Design Day Schedule Name

OS:ScheduleTypeLimits,
  {e7652da1-b0f9-4030-ab7e-f429f6376260}, !- Handle
  Dimensionless Schedule Type Limits,     !- Name
  ,                                       !- Lower Limit Value {BasedOnField A4}
  ,                                       !- Upper Limit Value {BasedOnField A4}
  Continuous,                             !- Numeric Type
  Dimensionless;                          !- Unit Type

OS:Schedule:Day,
  {93d1e73a-6f22-41be-a65d-037255ab28c5}, !- Handle
  0900|2000|AutoSales|default|clothing |default, !- Name
  {e7652da1-b0f9-4030-ab7e-f429f6376260}, !- Schedule Type Limits Name
  ,                                       !- Interpolate to Timestep
  24,                                     !- Hour 1
  0,                                      !- Minute 1
  0.9;                                    !- Value Until Time 1

OS:Schedule:Day,
  {9130ea1c-9c0f-4c9e-a054-a9ed0213de6d}, !- Handle
  0900|2000|AutoSales|default|clothing Summer Design Day, !- Name
  {e7652da1-b0f9-4030-ab7e-f429f6376260}, !- Schedule Type Limits Name
  ,                                       !- Interpolate to Timestep
  24,                                     !- Hour 1
  0,                                      !- Minute 1
  0.9;                                    !- Value Until Time 1

OS:Schedule:Day,
  {c2beda52-5404-4035-8251-54fc4e8005fa}, !- Handle
  0900|2000|AutoSales|default|clothing Winter Design Day, !- Name
  {e7652da1-b0f9-4030-ab7e-f429f6376260}, !- Schedule Type Limits Name
  ,                                       !- Interpolate to Timestep
  24,                                     !- Hour 1
  0,                                      !- Minute 1
  0.9;                                    !- Value Until Time 1

OS:Schedule:Rule,
  {cf9619df-0be0-4dea-82e4-210a88f1edf6}, !- Handle
  0900|2000|AutoSales|default|clothing |7/1-9/30|Mon/Tue/Wed/Thu/Fri/Sat/Sun Rule, !- Name
  {55b0befa-1580-4dc7-88c6-efe6ec8bbb4b}, !- Schedule Ruleset Name
  0,                                      !- Rule Order
  {2c16212f-81dd-469d-8e0f-915fac9fea05}, !- Day Schedule Name
  Yes,                                    !- Apply Sunday
  Yes,                                    !- Apply Monday
  Yes,                                    !- Apply Tuesday
  Yes,                                    !- Apply Wednesday
  Yes,                                    !- Apply Thursday
  Yes,                                    !- Apply Friday
  Yes,                                    !- Apply Saturday
  ,                                       !- Apply Holiday
  DateRange,                              !- Date Specification Type
  7,                                      !- Start Month
  1,                                      !- Start Day
  9,                                      !- End Month
  30;                                     !- End Day

OS:Schedule:Day,
  {2c16212f-81dd-469d-8e0f-915fac9fea05}, !- Handle
  0900|2000|AutoSales|default|clothing |7/1-9/30|Mon/Tue/Wed/Thu/Fri/Sat/Sun, !- Name
  {e7652da1-b0f9-4030-ab7e-f429f6376260}, !- Schedule Type Limits Name
  ,                                       !- Interpolate to Timestep
  24,                                     !- Hour 1
  0,                                      !- Minute 1
  0.7;                                    !- Value Until Time 1

OS:Schedule:Rule,
  {d5a10273-ba5e-4168-9f07-87425a743086}, !- Handle
  0900|2000|AutoSales|default|clothing |12/1-3/31|Mon/Tue/Wed/Thu/Fri/Sat/Sun Rule, !- Name
  {55b0befa-1580-4dc7-88c6-efe6ec8bbb4b}, !- Schedule Ruleset Name
  1,                                      !- Rule Order
  {3d7498b2-23bd-4dbf-810b-d7f0ebae8b44}, !- Day Schedule Name
  Yes,                                    !- Apply Sunday
  Yes,                                    !- Apply Monday
  Yes,                                    !- Apply Tuesday
  Yes,                                    !- Apply Wednesday
  Yes,                                    !- Apply Thursday
  Yes,                                    !- Apply Friday
  Yes,                                    !- Apply Saturday
  ,                                       !- Apply Holiday
  DateRange,                              !- Date Specification Type
  12,                                     !- Start Month
  1,                                      !- Start Day
  3,                                      !- End Month
  31;                                     !- End Day

OS:Schedule:Day,
  {3d7498b2-23bd-4dbf-810b-d7f0ebae8b44}, !- Handle
  0900|2000|AutoSales|default|clothing |12/1-3/31|Mon/Tue/Wed/Thu/Fri/Sat/Sun, !- Name
  {e7652da1-b0f9-4030-ab7e-f429f6376260}, !- Schedule Type Limits Name
  ,                                       !- Interpolate to Timestep
  24,                                     !- Hour 1
  0,                                      !- Minute 1
  1.3;                                    !- Value Until Time 1

OS:Schedule:Ruleset,
  {e1498d80-a3dc-4f99-8fc2-2b95be8da767}, !- Handle
  0900|2000|AutoSales|default|infiltration, !- Name
  {5f556af8-7039-4027-afa7-00aa8120920c}, !- Schedule Type Limits Name
  {e017cea5-6556-49a6-8e1c-738236774b21}, !- Default Day Schedule Name
  {5cbaa6d5-545d-4c8f-a4b6-cf731508b3a4}, !- Summer Design Day Schedule Name
  {6b9e6625-b5db-4c58-8d9f-bee6e9b7e9b6}; !- Winter Design Day Schedule Name

OS:Schedule:Day,
  {e017cea5-6556-49a6-8e1c-738236774b21}, !- Handle
  0900|2000|AutoSales|default|infiltration |default, !- Name
  {5f556af8-7039-4027-afa7-00aa8120920c}, !- Schedule Type Limits Name
  ,                                       !- Interpolate to Timestep
  1,                                      !- Hour 1
  0,                                      !- Minute 1
  1,                                      !- Value Until Time 1
  7,                                      !- Hour 2
  0,                                      !- Minute 2
  0.25,                                   !- Value Until Time 2
  24,                                     !- Hour 3
  0,                                      !- Minute 3
  1;                                      !- Value Until Time 3

OS:Schedule:Day,
  {5cbaa6d5-545d-4c8f-a4b6-cf731508b3a4}, !- Handle
  0900|2000|AutoSales|default|infiltration Summer Design Day, !- Name
  {5f556af8-7039-4027-afa7-00aa8120920c}, !- Schedule Type Limits Name
  ,                                       !- Interpolate to Timestep
  1,                                      !- Hour 1
  0,                                      !- Minute 1
  1,                                      !- Value Until Time 1
  7,                                      !- Hour 2
  0,                                      !- Minute 2
  0.25,                                   !- Value Until Time 2
  24,                                     !- Hour 3
  0,                                      !- Minute 3
  1;                                      !- Value Until Time 3

OS:Schedule:Day,
  {6b9e6625-b5db-4c58-8d9f-bee6e9b7e9b6}, !- Handle
  0900|2000|AutoSales|default|infiltration Winter Design Day, !- Name
  {5f556af8-7039-4027-afa7-00aa8120920c}, !- Schedule Type Limits Name
  ,                                       !- Interpolate to Timestep
  1,                                      !- Hour 1
  0,                                      !- Minute 1
  1,                                      !- Value Until Time 1
  7,                                      !- Hour 2
  0,                                      !- Minute 2
  0.25,                                   !- Value Until Time 2
  24,                                     !- Hour 3
  0,                                      !- Minute 3
  1;                                      !- Value Until Time 3

OS:Schedule:Rule,
  {9cc1dc92-6d6b-4d16-b738-39dfae986c62}, !- Handle
  0900|2000|AutoSales|default|infiltration |1/1-12/31|Sun Rule, !- Name
  {e1498d80-a3dc-4f99-8fc2-2b95be8da767}, !- Schedule Ruleset Name
  0,                                      !- Rule Order
  {7e097ab8-6d57-48eb-9784-eae9b0e0717c}, !- Day Schedule Name
  Yes,                                    !- Apply Sunday
  ,                                       !- Apply Monday
  ,                                       !- Apply Tuesday
  ,                                       !- Apply Wednesday
  ,                                       !- Apply Thursday
  ,                                       !- Apply Friday
  ,                                       !- Apply Saturday
  ,                                       !- Apply Holiday
  DateRange,                              !- Date Specification Type
  1,                                      !- Start Month
  1,                                      !- Start Day
  12,                                     !- End Month
  31;                                     !- End Day

OS:Schedule:Day,
  {7e097ab8-6d57-48eb-9784-eae9b0e0717c}, !- Handle
  0900|2000|AutoSales|default|infiltration |1/1-12/31|Sun, !- Name
  {5f556af8-7039-4027-afa7-00aa8120920c}, !- Schedule Type Limits Name
  ,                                       !- Interpolate to Timestep
  24,                                     !- Hour 1
  0,                                      !- Minute 1
  1;                                      !- Value Until Time 1

OS:Schedule:Rule,
  {1abc4e56-93de-473c-ba51-a3b7ac9ac701}, !- Handle
  0900|2000|AutoSales|default|infiltration |1/1-12/31|Sat Rule, !- Name
  {e1498d80-a3dc-4f99-8fc2-2b95be8da767}, !- Schedule Ruleset Name
  1,                                      !- Rule Order
  {8d7b9971-e29d-4fde-853d-ab7c5218fed3}, !- Day Schedule Name
  ,                                       !- Apply Sunday
  ,                                       !- Apply Monday
  ,                                       !- Apply Tuesday
  ,                                       !- Apply Wednesday
  ,                                       !- Apply Thursday
  ,                                       !- Apply Friday
  Yes,                                    !- Apply Saturday
  ,                                       !- Apply Holiday
  DateRange,                              !- Date Specification Type