
OS:Version,
  {cf7679ed-e740-47c0-a3b1-017b95a6be94}, !- Handle
  1.5.5;                                  !- Version Identifier

OS:ClimateZones,
  {135edfab-17e7-40db-a436-27d385a8cd6d}, !- Handle
  ,                                       !- Active Institution
  ,                                       !- Active Year
  ASHRAE,                                 !- Climate Zone Institution Name 1
  ANSI/ASHRAE Standard 169,               !- Climate Zone Document Name 1
  2006,                                   !- Climate Zone Document Year 1
  ,                                       !- Climate Zone Value 1
  CEC,                                    !- Climate Zone Institution Name 2
  California Climate Zone Descriptions,   !- Climate Zone Document Name 2
  1995,                                   !- Climate Zone Document Year 2
  ;                                       !- Climate Zone Value 2

OS:YearDescription,
  {513d8dda-86cb-442a-b01c-1f7f0e0ac70e}; !- Handle

OS:RadianceParameters,
  {270a96f1-3c86-4b75-a667-cdf22790e2c8}, !- Handle
  1,                                      !- Accumulated Rays per Record
  0,                                      !- Direct Threshold
  1,                                      !- Direct Certainty
  1,                                      !- Direct Jitter
  1,                                      !- Direct Pretest
  6,                                      !- Ambient Bounces VMX
  2,                                      !- Ambient Bounces DMX
  4050,                                   !- Ambient Divisions VMX
  512,                                    !- Ambient Divisions DMX
  256,                                    !- Ambient Supersamples
  0.001,                                  !- Limit Weight VMX
  0.001,                                  !- Limit Weight DMX
  500,                                    !- Klems Sampling Density
  146;                                    !- Sky Discretization Resolution

OS:SimulationControl,
  {2c487a4c-bac9-4ac5-b669-1e49d9da7c2b}, !- Handle
  ,                                       !- Do Zone Sizing Calculation
  ,                                       !- Do System Sizing Calculation
  ,                                       !- Do Plant Sizing Calculation
  No,                                     !- Run Simulation for Sizing Periods
  ,                                       !- Run Simulation for Weather File Run Periods
  0.04,                                   !- Loads Convergence Tolerance Value
  ,                                       !- Temperature Convergence Tolerance Value {deltaC}
  ,                                       !- Solar Distribution
  ,                                       !- Maximum Number of Warmup Days
  2;                                      !- Minimum Number of Warmup Days

OS:Sizing:Parameters,
  {dde5af6f-7923-4600-a28a-7556673a0266}, !- Handle
  1.25,                                   !- Heating Sizing Factor
  1.15;                                   !- Cooling Sizing Factor

OS:ProgramControl,
  {05027a99-f2b3-4aeb-afc6-1425fbb4371d}; !- Handle

OS:Timestep,
  {4ebc9f1e-4707-402e-9844-67eb1ffbd522}, !- Handle
  2;                                      !- Number of Timesteps per Hour

OS:OutputControl:ReportingTolerances,
  {65797aa2-06a9-45fe-b69d-bc6e060399d3}; !- Handle

OS:ConvergenceLimits,
  {9fc11aba-8822-4f3d-970c-46391ba4040d}; !- Handle

OS:ShadowCalculation,
  {ca758bea-4416-4626-9bba-3d8795c79bd6}, !- Handle
  7,                                      !- Calculation Frequency
  15000;                                  !- Maximum Figures in Shadow Overlap Calculations

OS:SurfaceConvectionAlgorithm:Inside,
  {aaabfc36-718a-4ab0-b622-f186ebb45230}, !- Handle
  TARP;                                   !- Algorithm

OS:SurfaceConvectionAlgorithm:Outside,
  {9a0a9f6f-4bbd-4b12-a121-9492a1fcd7d6}, !- Handle
  DOE-2;                                  !- Algorithm

OS:HeatBalanceAlgorithm,
  {9d93e563-e1e0-46d7-9e39-d1c8aceb7212}, !- Handle
  ConductionTransferFunction,             !- Algorithm
  200;                                    !- Surface Temperature Upper Limit {F}

OS:ZoneAirHeatBalanceAlgorithm,
  {8520d93e-310f-4696-9bcd-36228bfdd743}, !- Handle
  AnalyticalSolution;                     !- Algorithm

OS:ZoneAirContaminantBalance,
  {eb5fc3ae-fb22-4160-8fcb-3e3b22b000d3}; !- Handle

OS:ZoneCapacitanceMultiplier:ResearchSpecial,
  {4020ce4f-5a7a-4849-8028-8305d7b751b1}, !- Handle
  ,                                       !- Temperature Capacity Multiplier
  ,                                       !- Humidity Capacity Multiplier
  ;                                       !- Carbon Dioxide Capacity Multiplier

OS:RunPeriod,
  {28df894d-6af9-4fb8-8f56-df1753344aa3}, !- Handle
  Run Period 1,                           !- Name
  1,                                      !- Begin Month
  1,                                      !- Begin Day of Month
  12,                                     !- End Month
  31,                                     !- End Day of Month
  ,                                       !- Use Weather File Holidays and Special Days
  ,                                       !- Use Weather File Daylight Saving Period
  ,                                       !- Apply Weekend Holiday Rule
  ,                                       !- Use Weather File Rain Indicators
  ,                                       !- Use Weather File Snow Indicators
  ;                                       !- Number of Times Runperiod to be Repeated

OS:Building,
  {bf305633-c5a1-4881-9edf-ca5e1a8e1274}, !- Handle
  Building 1,                             !- Name
  ,                                       !- Building Sector Type
  ,                                       !- North Axis {deg}
  ,                                       !- Nominal Floor to Floor Height {m}
  ,                                       !- Space Type Name
  ,                                       !- Default Construction Set Name
  {4b1575e0-ffc5-4435-8d41-fea2b7af9c89}, !- Default Schedule Set Name
  ,                                       !- Standards Number of Stories
  ,                                       !- Standards Number of Above Ground Stories
  AutoRepair;                             !- Standards Building Type

OS:LifeCycleCost:Parameters,
  {231cf8a0-f0e7-4251-a99f-11f0d464e661}, !- Handle
  FEMP,                                   !- Analysis Type
  ,                                       !- Discounting Convention
  ,                                       !- Inflation Approach
  ,                                       !- Real Discount Rate
  ,                                       !- Nominal Discount Rate
  ,                                       !- Inflation
  ,                                       !- Base Date Month
  ,                                       !- Base Date Year
  ,                                       !- Service Date Month
  ,                                       !- Service Date Year
  ,                                       !- Length of Study Period in Years
  ,                                       !- Tax Rate
  ,                                       !- Depreciation Method
  Yes;                                    !- Use NIST Fuel Escalation Rates

OS:Facility,
  {3ba8e45b-b833-44eb-a723-ea6c3946dc96}; !- Handle

OS:SpaceType,
  {4205f0d6-62cc-4a4f-922c-f96afef737cb}, !- Handle
  AutoRepair|Garage|DOE Ref 2004|ASHRAE 169-2006-5A, !- Name
  {4f649445-1291-4094-bea1-ff86809fe22c}, !- Default Construction Set Name
  {e5934e65-6951-4962-a496-a7f8d7e8e4b1}, !- Default Schedule Set Name
  {94215076-1604-47d7-839e-0d7271cdb1e3}, !- Group Rendering Name
  {8bf6ca07-ee5e-41f3-aa8b-17361c277a1a}, !- Design Specification Outdoor Air Object Name
  AutoRepair,                             !- Standards Building Type
  Garage;                                 !- Standards Space Type

OS:Rendering:Color,
  {94215076-1604-47d7-839e-0d7271cdb1e3}, !- Handle
  Rendering Color 1,                      !- Name
  120,                                    !- Rendering Red Value
  120,                                    !- Rendering Green Value
  120;                                    !- Rendering Blue Value

OS:SpaceType,
  {87a0fae0-5796-4782-8be3-26066ec55bad}, !- Handle
  AutoRepair|BlendFront|DOE Ref 2004|ASHRAE 169-2006-5A, !- Name
  {4f649445-1291-4094-bea1-ff86809fe22c}, !- Default Construction Set Name
  ,                                       !- Default Schedule Set Name
  {dde97833-f38e-4d86-b647-20d6086665e2}, !- Group Rendering Name
  {de90c411-3b55-4a87-88e6-629a7511b5e7}, !- Design Specification Outdoor Air Object Name
  AutoRepair,                             !- Standards Building Type
  BlendFront;                             !- Standards Space Type

OS:Rendering:Color,
  {dde97833-f38e-4d86-b647-20d6086665e2}, !- Handle
  Rendering Color 2,                      !- Name
  230,                                    !- Rendering Red Value
  157,                                    !- Rendering Green Value
  120;                                    !- Rendering Blue Value

OS:SpaceType,
  {11ab6f55-60f7-48de-b8f3-38dafd675d78}, !- Handle
  AutoRepair|Restroom|DOE Ref 2004|ASHRAE 169-2006-5A, !- Name
  {4f649445-1291-4094-bea1-ff86809fe22c}, !- Default Construction Set Name
  {32671990-cf4e-4efc-a650-5017842be5b4}, !- Default Schedule Set Name
  {710a8fb0-20a3-4381-bc6e-a339381543e7}, !- Group Rendering Name
  {7b30d363-62ab-484d-8c44-b7bb095052b6}, !- Design Specification Outdoor Air Object Name
  AutoRepair,                             !- Standards Building Type
  Restroom;                               !- Standards Space Type

OS:Rendering:Color,
  {710a8fb0-20a3-4381-bc6e-a339381543e7}, !- Handle
  Rendering Color 3,                      !- Name
  169,                                    !- Rendering Red Value
  169,                                    !- Rendering Green Value
  31;                                     !- Rendering Blue Value

OS:Schedule:Ruleset,
  {7c7e1a0a-2da9-412d-919e-19873784a6e8}, !- Handle
  0800|1900|AutoRepair|default|hoo,       !- Name
  {0b2ec803-fde2-4e8b-99c4-11592d1d430d}, !- Schedule Type Limits Name
  {e7dd3baf-601b-478f-bf35-ed5d77666e19}, !- Default Day Schedule Name
  {e95d3b2a-684c-4369-a6af-35426568d8c7}, !- Summer Design Day Schedule Name
  {0ba97fcd-a177-4db4-b39a-adfdbc87c5cf}; !- Winter Design Day Schedule Name

OS:Schedule:Day,
  {e7dd3baf-601b-478f-bf35-ed5d77666e19}, !- Handle
  0800|1900|AutoRepair|default|hoo Schedule Week Day, !- Name
  {0b2ec803-fde2-4e8b-99c4-11592d1d430d}, !- Schedule Type Limits Name
  ,                                       !- Interpolate to Timestep
  8,                                      !- Hour 1
  0,                                      !- Minute 1
  0,                                      !- Value Until Time 1
  19,                                     !- Hour 2
  0,                                      !- Minute 2
  1,                                      !- Value Until Time 2
  24,                                     !- Hour 3
  0,                                      !- Minute 3
  0;                                      !- Value Until Time 3

OS:Schedule:Day,
  {1a2a9926-dc26-426a-87eb-c1eaeab639fb}, !- Handle
  Schedule Day 2,                         !- Name
  ,                                       !- Schedule Type Limits Name
  ,                                       !- Interpolate to Timestep
  24,                                     !- Hour 1
  0,                                      !- Minute 1
  0;                                      !- Value Until Time 1

OS:Schedule:Day,
  {0ba97fcd-a177-4db4-b39a-adfdbc87c5cf}, !- Handle
  0800|1900|AutoRepair|default|hoo Winter Design Day, !- Name
  {0b2ec803-fde2-4e8b-99c4-11592d1d430d}, !- Schedule Type Limits Name
  ,                                       !- Interpolate to Timestep
  24,                                     !- Hour 1
  0,                                      !- Minute 1
  0;                                      !- Value Until Time 1

OS:Schedule:Day,
  {c88aa5eb-df0a-4310-9533-fcc7d1917efc}, !- Handle
  Schedule Day 3,                         !- Name
  ,                                       !- Schedule Type Limits Name
  ,                                       !- Interpolate to Timestep
  24,                                     !- Hour 1
  0,                                      !- Minute 1
  0;                                      !- Value Until Time 1

OS:Schedule:Day,
  {e95d3b2a-684c-4369-a6af-35426568d8c7}, !- Handle
  0800|1900|AutoRepair|default|hoo Summer Design Day, !- Name
  {0b2ec803-fde2-4e8b-99c4-11592d1d430d}, !- Schedule Type Limits Name
  ,                                       !- Interpolate to Timestep
  24,                                     !- Hour 1
  0,                                      !- Minute 1
  1;                                      !- Value Until Time 1

OS:DefaultScheduleSet,
  {4b1575e0-ffc5-4435-8d41-fea2b7af9c89}, !- Handle
  Building Hours of Operation,            !- Name
  {7c7e1a0a-2da9-412d-919e-19873784a6e8}, !- Hours of Operation Schedule Name
  ,                                       !- Number of People Schedule Name
  ,                                       !- People Activity Level Schedule Name
  ,                                       !- Lighting Schedule Name
  ,                                       !- Electric Equipment Schedule Name
  ,                                       !- Gas Equipment Schedule Name
  ,                                       !- Hot Water Equipment Schedule Name
  ,                                       !- Infiltration Schedule Name
  ,                                       !- Steam Equipment Schedule Name
  ;                                       !- Other Equipment Schedule Name

OS:ScheduleTypeLimits,
  {0b2ec803-fde2-4e8b-99c4-11592d1d430d}, !- Handle
  OnOff,                                  !- Name
  0,                                      !- Lower Limit Value {BasedOnField A4}
  1,                                      !- Upper Limit Value {BasedOnField A4}
  Discrete,                               !- Numeric Type
  Availability;                           !- Unit Type

OS:Schedule:Ruleset,
  {bc0a2e58-ac9a-47cc-99af-0de8e8b5a308}, !- Handle
  0800|1900|AutoRepair|default|rh,        !- Name
  {ad865612-d57e-4eae-b666-a000a25f74c6}, !- Schedule Type Limits Name
  {93337331-a31a-453c-92e8-7a68c9f119f5}, !- Default Day Schedule Name
  {40877db0-e7ac-452e-8d7b-04c953b3b362}, !- Summer Design Day Schedule Name
  {38c9dc34-27f1-4938-b5d3-31da5877b889}; !- Winter Design Day Schedule Name

OS:ScheduleTypeLimits,
  {ad865612-d57e-4eae-b666-a000a25f74c6}, !- Handle
  Dimensionless Schedule Type Limits,     !- Name
  ,                                       !- Lower Limit Value {BasedOnField A4}
  ,                                       !- Upper Limit Value {BasedOnField A4}
  Continuous,                             !- Numeric Type
  Dimensionless;                          !- Unit Type

OS:Schedule:Day,
  {93337331-a31a-453c-92e8-7a68c9f119f5}, !- Handle
  0800|1900|AutoRepair|default|rh |default, !- Name
  {ad865612-d57e-4eae-b666-a000a25f74c6}, !- Schedule Type Limits Name
  ,                                       !- Interpolate to Timestep
  24,                                     !- Hour 1
  0,                                      !- Minute 1
  50;                                     !- Value Until Time 1

OS:Schedule:Day,
  {40877db0-e7ac-452e-8d7b-04c953b3b362}, !- Handle
  0800|1900|AutoRepair|default|rh Summer Design Day, !- Name
  {ad865612-d57e-4eae-b666-a000a25f74c6}, !- Schedule Type Limits Name
  ,                                       !- Interpolate to Timestep
  24,                                     !- Hour 1
  0,                                      !- Minute 1
  50;                                     !- Value Until Time 1

OS:Schedule:Day,
  {38c9dc34-27f1-4938-b5d3-31da5877b889}, !- Handle
  0800|1900|AutoRepair|default|rh Winter Design Day, !- Name
  {ad865612-d57e-4eae-b666-a000a25f74c6}, !- Schedule Type Limits Name
  ,                                       !- Interpolate to Timestep
  24,                                     !- Hour 1
  0,                                      !- Minute 1
  50;                                     !- Value Until Time 1

OS:Schedule:Ruleset,
  {464f2cb2-9537-428b-aeb6-ee086b272577}, !- Handle
  0800|1900|AutoRepair|default|swh,       !- Name
  {41c8b2de-501c-4d67-b893-fbef93a8954f}, !- Schedule Type Limits Name
  {49828260-f077-4b91-964a-79c9cf8222df}, !- Default Day Schedule Name
  {0ccd48cd-af83-4e5f-b859-0f1a0ca8cd69}, !- Summer Design Day Schedule Name
  {16291fab-63be-406a-aae2-6fb3e62a437b}; !- Winter Design Day Schedule Name

OS:ScheduleTypeLimits,
  {41c8b2de-501c-4d67-b893-fbef93a8954f}, !- Handle
  Water Use Schedule Type Limits,         !- Name
  0,                                      !- Lower Limit Value {BasedOnField A4}
  1,                                      !- Upper Limit Value {BasedOnField A4}
  Continuous,                             !- Numeric Type
  Dimensionless;                          !- Unit Type

OS:Schedule:Day,
  {49828260-f077-4b91-964a-79c9cf8222df}, !- Handle
  0800|1900|AutoRepair|default|swh |default, !- Name
  {41c8b2de-501c-4d67-b893-fbef93a8954f}, !- Schedule Type Limits Name
  ,                                       !- Interpolate to Timestep
  5,                                      !- Hour 1
  0,                                      !- Minute 1
  0.05,                                   !- Value Until Time 1
  5,                                      !- Hour 2
  30,                                     !- Minute 2
  0.1,                                    !- Value Until Time 2
  6,                                      !- Hour 3
  0,                                      !- Minute 3
  0.14,                                   !- Value Until Time 3
  6,                                      !- Hour 4
  30,                                     !- Minute 4
  0.19,                                   !- Value Until Time 4
  7,                                      !- Hour 5
  0,                                      !- Minute 5
  0.24,                                   !- Value Until Time 5
  7,                                      !- Hour 6
  30,                                     !- Minute 6
  0.29,                                   !- Value Until Time 6
  8,                                      !- Hour 7
  0,                                      !- Minute 7
  0.33,                                   !- Value Until Time 7
  8,                                      !- Hour 8
  30,                                     !- Minute 8
  0.38,                                   !- Value Until Time 8
  9,                                      !- Hour 9
  0,                                      !- Minute 9
  0.43,                                   !- Value Until Time 9
  9,                                      !- Hour 10
  30,                                     !- Minute 10
  0.44,                                   !- Value Until Time 10
  10,                                     !- Hour 11
  0,                                      !- Minute 11
  0.46,                                   !- Value Until Time 11
  10,                                     !- Hour 12
  30,                                     !- Minute 12
  0.48,                                   !- Value Until Time 12
  11,                                     !- Hour 13
  0,                                      !- Minute 13
  0.49,                                   !- Value Until Time 13
  11,                                     !- Hour 14
  30,                                     !- Minute 14
  0.51,                                   !- Value Until Time 14
  12,                                     !- Hour 15
  0,                                      !- Minute 15
  0.52,                                   !- Value Until Time 15
  12,                                     !- Hour 16
  30,                                     !- Minute 16
  0.54,                                   !- Value Until Time 16
  13,                                     !- Hour 17
  0,                                      !- Minute 17
  0.55,                                   !- Value Until Time 17
  13,                                     !- Hour 18
  30,                                     !- Minute 18
  0.57,                                   !- Value Until Time 18
  14,                                     !- Hour 19
  0,                                      !- Minute 19
  0.56,                                   !- Value Until Time 19
  14,                                     !- Hour 20
  30,                                     !- Minute 20
  0.54,                                   !- Value Until Time 20
  15,                                     !- Hour 21
  0,                                      !- Minute 21
  0.53,                                   !- Value Until Time 21
  15,                                     !- Hour 22
  30,                                     !- Minute 22
  0.52,                                   !- Value Until Time 22
  16,                                     !- Hour 23
  0,                                      !- Minute 23
  0.51,                                   !- Value Until Time 23
  16,                                     !- Hour 24
  30,                                     !- Minute 24
  0.49,                                   !- Value Until Time 24
  17,                                     !- Hour 25
  0,                                      !- Minute 25
  0.48,                                   !- Value Until Time 25
  17,                                     !- Hour 26
  30,                                     !- Minute 26
  0.47,                                   !- Value Until Time 26
  18,                                     !- Hour 27
  0,                                      !- Minute 27
  0.45,                                   !- Value Until Time 27
  18,                                     !- Hour 28
  30,                                     !- Minute 28
  0.44,                                   !- Value Until Time 28
  19,                                     !- Hour 29
  0,                                      !- Minute 29
  0.43,                                   !- Value Until Time 29
  19,                                     !- Hour 30
  30,                                     !- Minute 30
  0.39,                                   !- Value Until Time 30
  20,                                     !- Hour 31
  0,                                      !- Minute 31
  0.35,                                   !- Value Until Time 31
  20,                                     !- Hour 32
  30,                                     !- Minute 32
  0.31,                                   !- Value Until Time 32
  21,                                     !- Hour 33
  0,                                      !- Minute 33
  0.28,                                   !- Value Until Time 33
  21,                                     !- Hour 34
  30,                                     !- Minute 34
  0.24,                                   !- Value Until Time 34
  22,                                     !- Hour 35
  0,                                      !- Minute 35
  0.2,                                    !- Value Until Time 35
  22,                                     !- Hour 36
  30,                                     !- Minute 36
  0.16,                                   !- Value Until Time 36
  23,                                     !- Hour 37
  0,                                      !- Minute 37
  0.13,                                   !- Value Until Time 37
  23,                                     !- Hour 38
  30,                                     !- Minute 38
  0.09,                                   !- Value Until Time 38
  24,                                     !- Hour 39
  0,                                      !- Minute 39
  0.05;                                   !- Value Until Time 39

OS:Schedule:Day,
  {0ccd48cd-af83-4e5f-b859-0f1a0ca8cd69}, !- Handle
  0800|1900|AutoRepair|default|swh Summer Design Day, !- Name
  {41c8b2de-501c-4d67-b893-fbef93a8954f}, !- Schedule Type Limits Name
  ,                                       !- Interpolate to Timestep
  5,                                      !- Hour 1
  0,                                      !- Minute 1
  0.05,                                   !- Value Until Time 1
  5,                                      !- Hour 2
  30,                                     !- Minute 2
  0.1,                                    !- Value Until Time 2
  6,                                      !- Hour 3
  0,                                      !- Minute 3
  0.14,                                   !- Value Until Time 3
  6,                                      !- Hour 4
  30,                                     !- Minute 4
  0.19,                                   !- Value Until Time 4
  7,                                      !- Hour 5
  0,                                      !- Minute 5
  0.24,                                   !- Value Until Time 5
  7,                                      !- Hour 6
  30,                                     !- Minute 6
  0.29,                                   !- Value Until Time 6
  8,                                      !- Hour 7
  0,                                      !- Minute 7
  0.33,                                   !- Value Until Time 7
  8,                                      !- Hour 8
  30,                                     !- Minute 8
  0.38,                                   !- Value Until Time 8
  9,                                      !- Hour 9
  0,                                      !- Minute 9
  0.43,                                   !- Value Until Time 9
  9,                                      !- Hour 10
  30,                                     !- Minute 10
  0.44,                                   !- Value Until Time 10
  10,                                     !- Hour 11
  0,                                      !- Minute 11
  0.46,                                   !- Value Until Time 11
  10,                                     !- Hour 12
  30,                                     !- Minute 12
  0.48,                                   !- Value Until Time 12
  11,                                     !- Hour 13
  0,                                      !- Minute 13
  0.49,                                   !- Value Until Time 13
  11,                                     !- Hour 14
  30,                                     !- Minute 14
  0.51,                                   !- Value Until Time 14
  12,                                     !- Hour 15
  0,                                      !- Minute 15
  0.52,                                   !- Value Until Time 15
  12,                                     !- Hour 16
  30,                                     !- Minute 16
  0.54,                                   !- Value Until Time 16
  13,                                     !- Hour 17
  0,                                      !- Minute 17
  0.55,                                   !- Value Until Time 17
  13,                                     !- Hour 18
  30,                                     !- Minute 18
  0.57,                                   !- Value Until Time 18
  14,                                     !- Hour 19
  0,                                      !- Minute 19
  0.56,                                   !- Value Until Time 19
  14,                                     !- Hour 20
  30,                                     !- Minute 20
  0.54,                                   !- Value Until Time 20
  15,                                     !- Hour 21
  0,                                      !- Minute 21
  0.53,                                   !- Value Until Time 21
  15,                                     !- Hour 22
  30,                                     !- Minute 22
  0.52,                                   !- Value Until Time 22
  16,                                     !- Hour 23
  0,                                      !- Minute 23
  0.51,                                   !- Value Until Time 23
  16,                                     !- Hour 24
  30,                                     !- Minute 24
  0.49,                                   !- Value Until Time 24
  17,                                     !- Hour 25
  0,                                      !- Minute 25
  0.48,                                   !- Value Until Time 25
  17,                                     !- Hour 26
  30,                                     !- Minute 26
  0.47,                                   !- Value Until Time 26
  18,                                     !- Hour 27
  0,                                      !- Minute 27
  0.45,                                   !- Value Until Time 27
  18,                                     !- Hour 28
  30,                                     !- Minute 28
  0.44,                                   !- Value Until Time 28
  19,                                     !- Hour 29
  0,                                      !- Minute 29
  0.43,                                   !- Value Until Time 29
  19,                                     !- Hour 30
  30,                                     !- Minute 30
  0.39,                                   !- Value Until Time 30
  20,                                     !- Hour 31
  0,                                      !- Minute 31
  0.35,                                   !- Value Until Time 31
  20,                                     !- Hour 32
  30,                                     !- Minute 32
  0.31,                                   !- Value Until Time 32