
OS:Version,
  {0cf55ff5-d3af-47d3-9fcd-3e9409c501da}, !- Handle
  1.6.0;                                  !- Version Identifier

OS:ClimateZones,
  {135edfab-17e7-40db-a436-27d385a8cd6d}, !- Handle
  ,                                       !- Active Institution
  ,                                       !- Active Year
  ASHRAE,                                 !- Climate Zone Institution Name 1
  ANSI/ASHRAE Standard 169,               !- Climate Zone Document Name 1
  2006,                                   !- Climate Zone Document Year 1
  ,                                       !- Climate Zone Value 1
  CEC,                                    !- Climate Zone Institution Name 2
  California Climate Zone Descriptions,   !- Climate Zone Document Name 2
  1995,                                   !- Climate Zone Document Year 2
  ;                                       !- Climate Zone Value 2

OS:YearDescription,
  {513d8dda-86cb-442a-b01c-1f7f0e0ac70e}; !- Handle

OS:RadianceParameters,
  {270a96f1-3c86-4b75-a667-cdf22790e2c8}, !- Handle
  1,                                      !- Accumulated Rays per Record
  0,                                      !- Direct Threshold
  1,                                      !- Direct Certainty
  1,                                      !- Direct Jitter
  1,                                      !- Direct Pretest
  6,                                      !- Ambient Bounces VMX
  2,                                      !- Ambient Bounces DMX
  4050,                                   !- Ambient Divisions VMX
  512,                                    !- Ambient Divisions DMX
  256,                                    !- Ambient Supersamples
  0.001,                                  !- Limit Weight VMX
  0.001,                                  !- Limit Weight DMX
  500,                                    !- Klems Sampling Density
  146;                                    !- Sky Discretization Resolution

OS:SimulationControl,
  {2c487a4c-bac9-4ac5-b669-1e49d9da7c2b}, !- Handle
  ,                                       !- Do Zone Sizing Calculation
  ,                                       !- Do System Sizing Calculation
  ,                                       !- Do Plant Sizing Calculation
  No,                                     !- Run Simulation for Sizing Periods
  ,                                       !- Run Simulation for Weather File Run Periods
  0.04,                                   !- Loads Convergence Tolerance Value
  ,                                       !- Temperature Convergence Tolerance Value {deltaC}
  ,                                       !- Solar Distribution
  ,                                       !- Maximum Number of Warmup Days
  2;                                      !- Minimum Number of Warmup Days

OS:Sizing:Parameters,
  {dde5af6f-7923-4600-a28a-7556673a0266}, !- Handle
  1.25,                                   !- Heating Sizing Factor
  1.15;                                   !- Cooling Sizing Factor

OS:ProgramControl,
  {05027a99-f2b3-4aeb-afc6-1425fbb4371d}; !- Handle

OS:Timestep,
  {4ebc9f1e-4707-402e-9844-67eb1ffbd522}, !- Handle
  2;                                      !- Number of Timesteps per Hour

OS:OutputControl:ReportingTolerances,
  {65797aa2-06a9-45fe-b69d-bc6e060399d3}; !- Handle

OS:ConvergenceLimits,
  {9fc11aba-8822-4f3d-970c-46391ba4040d}; !- Handle

OS:ShadowCalculation,
  {ca758bea-4416-4626-9bba-3d8795c79bd6}, !- Handle
  7,                                      !- Calculation Frequency
  15000;                                  !- Maximum Figures in Shadow Overlap Calculations

OS:SurfaceConvectionAlgorithm:Inside,
  {aaabfc36-718a-4ab0-b622-f186ebb45230}, !- Handle
  TARP;                                   !- Algorithm

OS:SurfaceConvectionAlgorithm:Outside,
  {9a0a9f6f-4bbd-4b12-a121-9492a1fcd7d6}, !- Handle
  DOE-2;                                  !- Algorithm

OS:HeatBalanceAlgorithm,
  {9d93e563-e1e0-46d7-9e39-d1c8aceb7212}, !- Handle
  ConductionTransferFunction,             !- Algorithm
  200;                                    !- Surface Temperature Upper Limit {F}

OS:ZoneAirHeatBalanceAlgorithm,
  {8520d93e-310f-4696-9bcd-36228bfdd743}, !- Handle
  AnalyticalSolution;                     !- Algorithm

OS:ZoneAirContaminantBalance,
  {eb5fc3ae-fb22-4160-8fcb-3e3b22b000d3}; !- Handle

OS:ZoneCapacitanceMultiplier:ResearchSpecial,
  {4020ce4f-5a7a-4849-8028-8305d7b751b1}, !- Handle
  ,                                       !- Temperature Capacity Multiplier
  ,                                       !- Humidity Capacity Multiplier
  ;                                       !- Carbon Dioxide Capacity Multiplier

OS:RunPeriod,
  {28df894d-6af9-4fb8-8f56-df1753344aa3}, !- Handle
  Run Period 1,                           !- Name
  1,                                      !- Begin Month
  1,                                      !- Begin Day of Month
  12,                                     !- End Month
  31,                                     !- End Day of Month
  ,                                       !- Use Weather File Holidays and Special Days
  ,                                       !- Use Weather File Daylight Saving Period
  ,                                       !- Apply Weekend Holiday Rule
  ,                                       !- Use Weather File Rain Indicators
  ,                                       !- Use Weather File Snow Indicators
  ;                                       !- Number of Times Runperiod to be Repeated

OS:Building,
  {bf305633-c5a1-4881-9edf-ca5e1a8e1274}, !- Handle
  Building 1,                             !- Name
  ,                                       !- Building Sector Type
  ,                                       !- North Axis {deg}
  ,                                       !- Nominal Floor to Floor Height {m}
  ,                                       !- Space Type Name
  ,                                       !- Default Construction Set Name
  {1cdbb681-ac5b-43e4-972a-a6f5e69eef9b}, !- Default Schedule Set Name
  ,                                       !- Standards Number of Stories
  ,                                       !- Standards Number of Above Ground Stories
  AutoRepair;                             !- Standards Building Type

OS:LifeCycleCost:Parameters,
  {231cf8a0-f0e7-4251-a99f-11f0d464e661}, !- Handle
  FEMP,                                   !- Analysis Type
  ,                                       !- Discounting Convention
  ,                                       !- Inflation Approach
  ,                                       !- Real Discount Rate
  ,                                       !- Nominal Discount Rate
  ,                                       !- Inflation
  ,                                       !- Base Date Month
  ,                                       !- Base Date Year
  ,                                       !- Service Date Month
  ,                                       !- Service Date Year
  ,                                       !- Length of Study Period in Years
  ,                                       !- Tax Rate
  ,                                       !- Depreciation Method
  Yes;                                    !- Use NIST Fuel Escalation Rates

OS:Facility,
  {3ba8e45b-b833-44eb-a723-ea6c3946dc96}; !- Handle

OS:SpaceType,
  {fa9c8491-3670-4381-af8b-c46de39cef5f}, !- Handle
  AutoRepair|Garage|DOE Ref Pre-1980|ASHRAE 169-2006-5A, !- Name
  {dfe19846-b579-4fa7-a745-6666cea8ffaa}, !- Default Construction Set Name
  {cb20db6a-bb6e-4cb4-8ac0-872a6d8df294}, !- Default Schedule Set Name
  {acd56d89-f20c-4766-adfb-f3eaa2cbc1a4}, !- Group Rendering Name
  {0ca30384-de4f-4990-a217-25acfb54c83d}, !- Design Specification Outdoor Air Object Name
  AutoRepair,                             !- Standards Building Type
  Garage;                                 !- Standards Space Type

OS:Rendering:Color,
  {acd56d89-f20c-4766-adfb-f3eaa2cbc1a4}, !- Handle
  Rendering Color 1,                      !- Name
  120,                                    !- Rendering Red Value
  120,                                    !- Rendering Green Value
  120;                                    !- Rendering Blue Value

OS:SpaceType,
  {72654a37-6a4f-45d5-aa41-da56e8150479}, !- Handle
  AutoRepair|BlendFront|DOE Ref Pre-1980|ASHRAE 169-2006-5A, !- Name
  {dfe19846-b579-4fa7-a745-6666cea8ffaa}, !- Default Construction Set Name
  ,                                       !- Default Schedule Set Name
  {e00fd141-1b22-4435-929a-c94a49a70cbf}, !- Group Rendering Name
  {0ec4766f-aeac-4f98-a5ab-c36cbfaec963}, !- Design Specification Outdoor Air Object Name
  AutoRepair,                             !- Standards Building Type
  BlendFront;                             !- Standards Space Type

OS:Rendering:Color,
  {e00fd141-1b22-4435-929a-c94a49a70cbf}, !- Handle
  Rendering Color 2,                      !- Name
  230,                                    !- Rendering Red Value
  157,                                    !- Rendering Green Value
  120;                                    !- Rendering Blue Value

OS:SpaceType,
  {e655024c-3874-4c40-b630-a5ef1da8d99a}, !- Handle
  AutoRepair|Restroom|DOE Ref Pre-1980|ASHRAE 169-2006-5A, !- Name
  {dfe19846-b579-4fa7-a745-6666cea8ffaa}, !- Default Construction Set Name
  {d240a156-b851-4599-aae6-72a12b9d7643}, !- Default Schedule Set Name
  {81f4eb1d-5768-44c3-89f4-f3e7b5680f07}, !- Group Rendering Name
  {8cdcac0e-8592-4e4c-9a8b-b83bc998036d}, !- Design Specification Outdoor Air Object Name
  AutoRepair,                             !- Standards Building Type
  Restroom;                               !- Standards Space Type

OS:Rendering:Color,
  {81f4eb1d-5768-44c3-89f4-f3e7b5680f07}, !- Handle
  Rendering Color 3,                      !- Name
  169,                                    !- Rendering Red Value
  169,                                    !- Rendering Green Value
  31;                                     !- Rendering Blue Value

OS:Schedule:Ruleset,
  {9d8c546d-c837-4511-854c-e468f96609e3}, !- Handle
  0800|1900|AutoRepair|default|hoo,       !- Name
  {18840ac3-9eaf-45d7-8bff-9f2a4acc8458}, !- Schedule Type Limits Name
  {6126a4d9-48c0-4fd9-bd85-e72efdf3f22f}, !- Default Day Schedule Name
  {bfbe4486-3007-48db-8a8f-3e0dc7e2d3bf}, !- Summer Design Day Schedule Name
  {2626b938-5c7d-45b7-bdb7-854bcff09d0b}; !- Winter Design Day Schedule Name

OS:Schedule:Day,
  {6126a4d9-48c0-4fd9-bd85-e72efdf3f22f}, !- Handle
  0800|1900|AutoRepair|default|hoo Schedule Week Day, !- Name
  {18840ac3-9eaf-45d7-8bff-9f2a4acc8458}, !- Schedule Type Limits Name
  ,                                       !- Interpolate to Timestep
  8,                                      !- Hour 1
  0,                                      !- Minute 1
  0,                                      !- Value Until Time 1
  19,                                     !- Hour 2
  0,                                      !- Minute 2
  1,                                      !- Value Until Time 2
  24,                                     !- Hour 3
  0,                                      !- Minute 3
  0;                                      !- Value Until Time 3

OS:Schedule:Day,
  {2b568b56-5fb9-4a22-be6b-295673867a9c}, !- Handle
  Schedule Day 2,                         !- Name
  ,                                       !- Schedule Type Limits Name
  ,                                       !- Interpolate to Timestep
  24,                                     !- Hour 1
  0,                                      !- Minute 1
  0;                                      !- Value Until Time 1

OS:Schedule:Day,
  {2626b938-5c7d-45b7-bdb7-854bcff09d0b}, !- Handle
  0800|1900|AutoRepair|default|hoo Winter Design Day, !- Name
  {18840ac3-9eaf-45d7-8bff-9f2a4acc8458}, !- Schedule Type Limits Name
  ,                                       !- Interpolate to Timestep
  24,                                     !- Hour 1
  0,                                      !- Minute 1
  0;                                      !- Value Until Time 1

OS:Schedule:Day,
  {802b45fe-8ebe-4de8-a16b-6850020a98eb}, !- Handle
  Schedule Day 3,                         !- Name
  ,                                       !- Schedule Type Limits Name
  ,                                       !- Interpolate to Timestep
  24,                                     !- Hour 1
  0,                                      !- Minute 1
  0;                                      !- Value Until Time 1

OS:Schedule:Day,
  {bfbe4486-3007-48db-8a8f-3e0dc7e2d3bf}, !- Handle
  0800|1900|AutoRepair|default|hoo Summer Design Day, !- Name
  {18840ac3-9eaf-45d7-8bff-9f2a4acc8458}, !- Schedule Type Limits Name
  ,                                       !- Interpolate to Timestep
  24,                                     !- Hour 1
  0,                                      !- Minute 1
  1;                                      !- Value Until Time 1

OS:DefaultScheduleSet,
  {1cdbb681-ac5b-43e4-972a-a6f5e69eef9b}, !- Handle
  Building Hours of Operation,            !- Name
  {9d8c546d-c837-4511-854c-e468f96609e3}, !- Hours of Operation Schedule Name
  ,                                       !- Number of People Schedule Name
  ,                                       !- People Activity Level Schedule Name
  ,                                       !- Lighting Schedule Name
  ,                                       !- Electric Equipment Schedule Name
  ,                                       !- Gas Equipment Schedule Name
  ,                                       !- Hot Water Equipment Schedule Name
  ,                                       !- Infiltration Schedule Name
  ,                                       !- Steam Equipment Schedule Name
  ;                                       !- Other Equipment Schedule Name

OS:ScheduleTypeLimits,
  {18840ac3-9eaf-45d7-8bff-9f2a4acc8458}, !- Handle
  OnOff,                                  !- Name
  0,                                      !- Lower Limit Value {BasedOnField A4}
  1,                                      !- Upper Limit Value {BasedOnField A4}
  Discrete,                               !- Numeric Type
  Availability;                           !- Unit Type

OS:Schedule:Ruleset,
  {e54e90e5-c626-4af7-a6b7-0a031956f378}, !- Handle
  0800|1900|AutoRepair|default|air_velocity, !- Name
  {3447cb14-84ce-4fb0-9c96-4454de9f9cf5}, !- Schedule Type Limits Name
  {e19bb86f-e86c-4506-a431-6bbf5f5f5243}, !- Default Day Schedule Name
  {624e47c9-fa86-4767-a26c-c46660d37f39}, !- Summer Design Day Schedule Name
  {d070e39e-3a63-40cc-8b0d-b434c88b5044}; !- Winter Design Day Schedule Name

OS:ScheduleTypeLimits,
  {3447cb14-84ce-4fb0-9c96-4454de9f9cf5}, !- Handle
  Dimensionless Schedule Type Limits,     !- Name
  ,                                       !- Lower Limit Value {BasedOnField A4}
  ,                                       !- Upper Limit Value {BasedOnField A4}
  Continuous,                             !- Numeric Type
  Dimensionless;                          !- Unit Type

OS:Schedule:Day,
  {e19bb86f-e86c-4506-a431-6bbf5f5f5243}, !- Handle
  0800|1900|AutoRepair|default|air_velocity |default, !- Name
  {3447cb14-84ce-4fb0-9c96-4454de9f9cf5}, !- Schedule Type Limits Name
  ,                                       !- Interpolate to Timestep
  24,                                     !- Hour 1
  0,                                      !- Minute 1
  0.200152;                               !- Value Until Time 1

OS:Schedule:Day,
  {624e47c9-fa86-4767-a26c-c46660d37f39}, !- Handle
  0800|1900|AutoRepair|default|air_velocity Summer Design Day, !- Name
  {3447cb14-84ce-4fb0-9c96-4454de9f9cf5}, !- Schedule Type Limits Name
  ,                                       !- Interpolate to Timestep
  24,                                     !- Hour 1
  0,                                      !- Minute 1
  0.200152;                               !- Value Until Time 1

OS:Schedule:Day,
  {d070e39e-3a63-40cc-8b0d-b434c88b5044}, !- Handle
  0800|1900|AutoRepair|default|air_velocity Winter Design Day, !- Name
  {3447cb14-84ce-4fb0-9c96-4454de9f9cf5}, !- Schedule Type Limits Name
  ,                                       !- Interpolate to Timestep
  24,                                     !- Hour 1
  0,                                      !- Minute 1
  0.200152;                               !- Value Until Time 1

OS:Schedule:Ruleset,
  {1125c81f-e9c8-4088-bc41-e60d67baa5ed}, !- Handle
  0800|1900|AutoRepair|default|occ,       !- Name
  {a329d84a-19a0-4c3e-80d0-67e5c252aa3a}, !- Schedule Type Limits Name
  {89e67c25-1fa0-4c6e-8051-10b2b640653a}, !- Default Day Schedule Name
  {59614fbf-ff83-4e67-ab0f-f4c15274e7f4}, !- Summer Design Day Schedule Name
  {b6616574-e226-4a63-9be5-8d1c91a9d012}; !- Winter Design Day Schedule Name

OS:ScheduleTypeLimits,
  {a329d84a-19a0-4c3e-80d0-67e5c252aa3a}, !- Handle
  Occupancy Schedule Type Limits,         !- Name
  0,                                      !- Lower Limit Value {BasedOnField A4}
  1,                                      !- Upper Limit Value {BasedOnField A4}
  Continuous,                             !- Numeric Type
  Dimensionless;                          !- Unit Type

OS:Schedule:Day,
  {89e67c25-1fa0-4c6e-8051-10b2b640653a}, !- Handle
  0800|1900|AutoRepair|default|occ |default, !- Name
  {a329d84a-19a0-4c3e-80d0-67e5c252aa3a}, !- Schedule Type Limits Name
  ,                                       !- Interpolate to Timestep
  5,                                      !- Hour 1
  0,                                      !- Minute 1
  0,                                      !- Value Until Time 1
  5,                                      !- Hour 2
  30,                                     !- Minute 2
  0.07,                                   !- Value Until Time 2
  6,                                      !- Hour 3
  0,                                      !- Minute 3
  0.13,                                   !- Value Until Time 3
  6,                                      !- Hour 4
  30,                                     !- Minute 4
  0.2,                                    !- Value Until Time 4
  7,                                      !- Hour 5
  0,                                      !- Minute 5
  0.27,                                   !- Value Until Time 5
  7,                                      !- Hour 6
  30,                                     !- Minute 6
  0.33,                                   !- Value Until Time 6
  23,                                     !- Hour 7
  0,                                      !- Minute 7
  0.4,                                    !- Value Until Time 7
  23,                                     !- Hour 8
  30,                                     !- Minute 8
  0.2,                                    !- Value Until Time 8
  24,                                     !- Hour 9
  0,                                      !- Minute 9
  0;                                      !- Value Until Time 9

OS:Schedule:Day,
  {59614fbf-ff83-4e67-ab0f-f4c15274e7f4}, !- Handle
  0800|1900|AutoRepair|default|occ Summer Design Day, !- Name
  {a329d84a-19a0-4c3e-80d0-67e5c252aa3a}, !- Schedule Type Limits Name
  ,                                       !- Interpolate to Timestep
  5,                                      !- Hour 1
  0,                                      !- Minute 1
  0,                                      !- Value Until Time 1
  5,                                      !- Hour 2
  30,                                     !- Minute 2
  0.07,                                   !- Value Until Time 2
  6,                                      !- Hour 3
  0,                                      !- Minute 3
  0.13,                                   !- Value Until Time 3
  6,                                      !- Hour 4
  30,                                     !- Minute 4
  0.2,                                    !- Value Until Time 4
  7,                                      !- Hour 5
  0,                                      !- Minute 5
  0.27,                                   !- Value Until Time 5
  23,                                     !- Hour 6
  0,                                      !- Minute 6
  1,                                      !- Value Until Time 6
  23,                                     !- Hour 7
  30,                                     !- Minute 7
  0.2,                                    !- Value Until Time 7
  24,                                     !- Hour 8
  0,                                      !- Minute 8
  0;                                      !- Value Until Time 8

OS:Schedule:Day,
  {b6616574-e226-4a63-9be5-8d1c91a9d012}, !- Handle
  0800|1900|AutoRepair|default|occ Winter Design Day, !- Name
  {a329d84a-19a0-4c3e-80d0-67e5c252aa3a}, !- Schedule Type Limits Name
  ,                                       !- Interpolate to Timestep
  24,                                     !- Hour 1
  0,                                      !- Minute 1
  0;                                      !- Value Until Time 1

OS:Schedule:Rule,
  {826bd02d-f2a9-4d21-82f6-350ec47cf62f}, !- Handle
  0800|1900|AutoRepair|default|occ |1/1-12/31|Sun Rule, !- Name
  {1125c81f-e9c8-4088-bc41-e60d67baa5ed}, !- Schedule Ruleset Name
  0,                                      !- Rule Order
  {ad7a72f4-931c-44aa-bff2-f794643d97d9}, !- Day Schedule Name
  Yes,                                    !- Apply Sunday
  ,                                       !- Apply Monday
  ,                                       !- Apply Tuesday
  ,                                       !- Apply Wednesday
  ,                                       !- Apply Thursday
  ,                                       !- Apply Friday
  ,                                       !- Apply Saturday
  ,                                       !- Apply Holiday
  DateRange,                              !- Date Specification Type
  1,                                      !- Start Month
  1,                                      !- Start Day
  12,                                     !- End Month
  31;                                     !- End Day

OS:Schedule:Day,
  {ad7a72f4-931c-44aa-bff2-f794643d97d9}, !- Handle
  0800|1900|AutoRepair|default|occ |1/1-12/31|Sun, !- Name
  {a329d84a-19a0-4c3e-80d0-67e5c252aa3a}, !- Schedule Type Limits Name
  ,                                       !- Interpolate to Timestep
  24,                                     !- Hour 1
  0,                                      !- Minute 1
  0;                                      !- Value Until Time 1

OS:Schedule:Rule,
  {9b41bd8f-0417-4e9c-b543-b62045f7472d}, !- Handle
  0800|1900|AutoRepair|default|occ |1/1-12/31|Sat Rule, !- Name
  {1125c81f-e9c8-4088-bc41-e60d67baa5ed}, !- Schedule Ruleset Name
  1,                                      !- Rule Order
  {4f384294-97e8-4873-9e76-8d9deff6f3d1}, !- Day Schedule Name
  ,                                       !- Apply Sunday
  ,                                       !- Apply Monday
  ,                                       !- Apply Tuesday
  ,                                       !- Apply Wednesday
  ,                                       !- Apply Thursday
  ,                                       !- Apply Friday
  Yes,                                    !- Apply Saturday
  ,                                       !- Apply Holiday
  DateRange,                              !- Date Specification Type
  1,                                      !- Start Month
  1,                                      !- Start Day
  12,                                     !- End Month
  31;                                     !- End Day

OS:Schedule:Day,
  {4f384294-97e8-4873-9e76-8d9deff6f3d1}, !- Handle
  0800|1900|AutoRepair|default|occ |1/1-12/31|Sat, !- Name
  {a329d84a-19a0-4c3e-80d0-67e5c252aa3a}, !- Schedule Type Limits Name
  ,                                       !- Interpolate to Timestep
  5,                                      !- Hour 1
  0,                                      !- Minute 1
  0,                                      !- Value Until Time 1
  5,                                      !- Hour 2
  30,                                     !- Minute 2
  0.04,                                   !- Value Until Time 2
  6,                                      !- Hour 3
  0,                                      !- Minute 3
  0.08,                                   !- Value Until Time 3
  6,                                      !- Hour 4
  30,                                     !- Minute 4
  0.13,                                   !- Value Until Time 4
  7,                                      !- Hour 5
  0,                                      !- Minute 5
  0.17,                                   !- Value Until Time 5
  7,                                      !- Hour 6
  30,                                     !- Minute 6
  0.21,                                   !- Value Until Time 6
  16,                                     !- Hour 7
  0,                                      !- Minute 7
  0.25,                                   !- Value Until Time 7
  16,                                     !- Hour 8
  30,                                     !- Minute 8
  0.22,                                   !- Value Until Time 8
  17,                                     !- Hour 9
  0,                                      !- Minute 9
  0.19,                                   !- Value Until Time 9
  17,                                     !- Hour 10
  30,                                     !- Minute 10
  0.16,                                   !- Value Until Time 10
  18,                                     !- Hour 11
  0,                                      !- Minute 11
  0.13,                                   !- Value Until Time 11
  18,                                     !- Hour 12
  30,                                     !- Minute 12
  0.09,                                   !- Value Until Time 12
  19,                                     !- Hour 13
  0,                                      !- Minute 13
  0.06,                                   !- Value Until Time 13
  19,                                     !- Hour 14
  30,                                     !- Minute 14
  0.03,                                   !- Value Until Time 14
  24,                                     !- Hour 15
  0,                                      !- Minute 15
  0;                                      !- Value Until Time 15

OS:Schedule:Ruleset,
  {d2d1aba7-a84e-4c52-8a0e-77c57090688f}, !- Handle
  0800|1900|AutoRepair|default|activity,  !- Name
  {e6280188-0abd-4c15-b801-f5a92df19166}, !- Schedule Type Limits Name
  {01e0c41f-ff76-4d5d-9104-d543e0a0584a}, !- Default Day Schedule Name
  {0ab2532d-c419-4787-b660-25c2fbd64998}, !- Summer Design Day Schedule Name
  {64bc0bb8-3cca-4a81-bc26-83fe6753a678}; !- Winter Design Day Schedule Name

OS:ScheduleTypeLimits,
  {e6280188-0abd-4c15-b801-f5a92df19166}, !- Handle
  People Activity Type Limits,            !- Name
  0,                                      !- Lower Limit Value {BasedOnField A4}
  ,                                       !- Upper Limit Value {BasedOnField A4}
  Continuous,                             !- Numeric Type
  ActivityLevel;                          !- Unit Type

OS:Schedule:Day,
  {01e0c41f-ff76-4d5d-9104-d543e0a0584a}, !- Handle
  0800|1900|AutoRepair|default|activity |default, !- Name
  {e6280188-0abd-4c15-b801-f5a92df19166}, !- Schedule Type Limits Name
  ,                                       !- Interpolate to Timestep
  24,                                     !- Hour 1
  0,                                      !- Minute 1
  120;                                    !- Value Until Time 1

OS:Schedule:Day,
  {0ab2532d-c419-4787-b660-25c2fbd64998}, !- Handle
  0800|1900|AutoRepair|default|activity Summer Design Day, !- Name
  {e6280188-0abd-4c15-b801-f5a92df19166}, !- Schedule Type Limits Name
  ,                                       !- Interpolate to Timestep
  24,                                     !- Hour 1
  0,                                      !- Minute 1
  120;                                    !- Value Until Time 1

OS:Schedule:Day,
  {64bc0bb8-3cca-4a81-bc26-83fe6753a678}, !- Handle
  0800|1900|AutoRepair|default|activity Winter Design Day, !- Name
  {e6280188-0abd-4c15-b801-f5a92df19166}, !- Schedule Type Limits Name
  ,                                       !- Interpolate to Timestep
  24,                                     !- Hour 1
  0,                                      !- Minute 1
  120;                                    !- Value Until Time 1

OS:Schedule:Ruleset,
  {43451721-8586-494c-be91-6b1ea3c71770}, !- Handle
  0800|1900|AutoRepair|default|work_eff,  !- Name
  {fb50cfa3-bbc2-4a9e-a216-4be78bf27517}, !- Schedule Type Limits Name
  {1f44ef2b-8b3e-4596-9103-f689cfb48714}, !- Default Day Schedule Name
  {63fd7668-4656-44d7-8e6b-a29fe118df73}, !- Summer Design Day Schedule Name
  {b400b2d9-924e-46db-ac5f-462cf5356b24}; !- Winter Design Day Schedule Name

OS:ScheduleTypeLimits,
  {fb50cfa3-bbc2-4a9e-a216-4be78bf27517}, !- Handle
  Fraction Schedule Type Limits,          !- Name
  0,                                      !- Lower Limit Value {BasedOnField A4}
  1,                                      !- Upper Limit Value {BasedOnField A4}
  Continuous,                             !- Numeric Type
  Dimensionless;                          !- Unit Type

OS:Schedule:Day,
  {1f44ef2b-8b3e-4596-9103-f689cfb48714}, !- Handle
  0800|1900|AutoRepair|default|work_eff |default, !- Name
  {fb50cfa3-bbc2-4a9e-a216-4be78bf27517}, !- Schedule Type Limits Name
  ,                                       !- Interpolate to Timestep
  24,                                     !- Hour 1
  0,                                      !- Minute 1
  0;                                      !- Value Until Time 1

OS:Schedule:Day,