
OS:Version,
  {e34162ad-13af-4433-b18f-0082fe296dbb}, !- Handle
  1.6.0;                                  !- Version Identifier

OS:ClimateZones,
  {135edfab-17e7-40db-a436-27d385a8cd6d}, !- Handle
  ,                                       !- Active Institution
  ,                                       !- Active Year
  ASHRAE,                                 !- Climate Zone Institution Name 1
  ANSI/ASHRAE Standard 169,               !- Climate Zone Document Name 1
  2006,                                   !- Climate Zone Document Year 1
  ,                                       !- Climate Zone Value 1
  CEC,                                    !- Climate Zone Institution Name 2
  California Climate Zone Descriptions,   !- Climate Zone Document Name 2
  1995,                                   !- Climate Zone Document Year 2
  ;                                       !- Climate Zone Value 2

OS:YearDescription,
  {513d8dda-86cb-442a-b01c-1f7f0e0ac70e}; !- Handle

OS:RadianceParameters,
  {270a96f1-3c86-4b75-a667-cdf22790e2c8}, !- Handle
  1,                                      !- Accumulated Rays per Record
  0,                                      !- Direct Threshold
  1,                                      !- Direct Certainty
  1,                                      !- Direct Jitter
  1,                                      !- Direct Pretest
  6,                                      !- Ambient Bounces VMX
  2,                                      !- Ambient Bounces DMX
  4050,                                   !- Ambient Divisions VMX
  512,                                    !- Ambient Divisions DMX
  256,                                    !- Ambient Supersamples
  0.001,                                  !- Limit Weight VMX
  0.001,                                  !- Limit Weight DMX
  500,                                    !- Klems Sampling Density
  146;                                    !- Sky Discretization Resolution

OS:SimulationControl,
  {2c487a4c-bac9-4ac5-b669-1e49d9da7c2b}, !- Handle
  ,                                       !- Do Zone Sizing Calculation
  ,                                       !- Do System Sizing Calculation
  ,                                       !- Do Plant Sizing Calculation
  No,                                     !- Run Simulation for Sizing Periods
  ,                                       !- Run Simulation for Weather File Run Periods
  0.04,                                   !- Loads Convergence Tolerance Value
  ,                                       !- Temperature Convergence Tolerance Value {deltaC}
  ,                                       !- Solar Distribution
  ,                                       !- Maximum Number of Warmup Days
  2;                                      !- Minimum Number of Warmup Days

OS:Sizing:Parameters,
  {dde5af6f-7923-4600-a28a-7556673a0266}, !- Handle
  1.25,                                   !- Heating Sizing Factor
  1.15;                                   !- Cooling Sizing Factor

OS:ProgramControl,
  {05027a99-f2b3-4aeb-afc6-1425fbb4371d}; !- Handle

OS:Timestep,
  {4ebc9f1e-4707-402e-9844-67eb1ffbd522}, !- Handle
  2;                                      !- Number of Timesteps per Hour

OS:OutputControl:ReportingTolerances,
  {65797aa2-06a9-45fe-b69d-bc6e060399d3}; !- Handle

OS:ConvergenceLimits,
  {9fc11aba-8822-4f3d-970c-46391ba4040d}; !- Handle

OS:ShadowCalculation,
  {ca758bea-4416-4626-9bba-3d8795c79bd6}, !- Handle
  7,                                      !- Calculation Frequency
  15000;                                  !- Maximum Figures in Shadow Overlap Calculations

OS:SurfaceConvectionAlgorithm:Inside,
  {aaabfc36-718a-4ab0-b622-f186ebb45230}, !- Handle
  TARP;                                   !- Algorithm

OS:SurfaceConvectionAlgorithm:Outside,
  {9a0a9f6f-4bbd-4b12-a121-9492a1fcd7d6}, !- Handle
  DOE-2;                                  !- Algorithm

OS:HeatBalanceAlgorithm,
  {9d93e563-e1e0-46d7-9e39-d1c8aceb7212}, !- Handle
  ConductionTransferFunction,             !- Algorithm
  200;                                    !- Surface Temperature Upper Limit {F}

OS:ZoneAirHeatBalanceAlgorithm,
  {8520d93e-310f-4696-9bcd-36228bfdd743}, !- Handle
  AnalyticalSolution;                     !- Algorithm

OS:ZoneAirContaminantBalance,
  {eb5fc3ae-fb22-4160-8fcb-3e3b22b000d3}; !- Handle

OS:ZoneCapacitanceMultiplier:ResearchSpecial,
  {4020ce4f-5a7a-4849-8028-8305d7b751b1}, !- Handle
  ,                                       !- Temperature Capacity Multiplier
  ,                                       !- Humidity Capacity Multiplier
  ;                                       !- Carbon Dioxide Capacity Multiplier

OS:RunPeriod,
  {28df894d-6af9-4fb8-8f56-df1753344aa3}, !- Handle
  Run Period 1,                           !- Name
  1,                                      !- Begin Month
  1,                                      !- Begin Day of Month
  12,                                     !- End Month
  31,                                     !- End Day of Month
  ,                                       !- Use Weather File Holidays and Special Days
  ,                                       !- Use Weather File Daylight Saving Period
  ,                                       !- Apply Weekend Holiday Rule
  ,                                       !- Use Weather File Rain Indicators
  ,                                       !- Use Weather File Snow Indicators
  ;                                       !- Number of Times Runperiod to be Repeated

OS:Building,
  {bf305633-c5a1-4881-9edf-ca5e1a8e1274}, !- Handle
  Building 1,                             !- Name
  ,                                       !- Building Sector Type
  ,                                       !- North Axis {deg}
  ,                                       !- Nominal Floor to Floor Height {m}
  ,                                       !- Space Type Name
  ,                                       !- Default Construction Set Name
  {4f229967-0022-445f-8f26-e1ea8b8782c1}; !- Default Schedule Set Name

OS:LifeCycleCost:Parameters,
  {231cf8a0-f0e7-4251-a99f-11f0d464e661}, !- Handle
  FEMP,                                   !- Analysis Type
  ,                                       !- Discounting Convention
  ,                                       !- Inflation Approach
  ,                                       !- Real Discount Rate
  ,                                       !- Nominal Discount Rate
  ,                                       !- Inflation
  ,                                       !- Base Date Month
  ,                                       !- Base Date Year
  ,                                       !- Service Date Month
  ,                                       !- Service Date Year
  ,                                       !- Length of Study Period in Years
  ,                                       !- Tax Rate
  ,                                       !- Depreciation Method
  Yes;                                    !- Use NIST Fuel Escalation Rates

OS:Facility,
  {3ba8e45b-b833-44eb-a723-ea6c3946dc96}; !- Handle

OS:SpaceType,
  {ff15eab8-688a-49ff-a72a-3c0aaf93a16c}, !- Handle
  Bank|BlendFront|DOE Ref Pre-1980|ASHRAE 169-2006-5A, !- Name
  {07f20789-a442-4edf-bd25-28a471ec5360}, !- Default Construction Set Name
  ,                                       !- Default Schedule Set Name
  {684af182-180d-40d4-ba8e-ad95edd136ea}, !- Group Rendering Name
  {305fb198-7f49-47c3-a4b3-91f50e6cba0a}, !- Design Specification Outdoor Air Object Name
  Bank,                                   !- Standards Building Type
  BlendFront;                             !- Standards Space Type

OS:Rendering:Color,
  {684af182-180d-40d4-ba8e-ad95edd136ea}, !- Handle
  Rendering Color 1,                      !- Name
  230,                                    !- Rendering Red Value
  157,                                    !- Rendering Green Value
  120;                                    !- Rendering Blue Value

OS:Schedule:Ruleset,
  {43d8a966-2620-4402-a0cc-cebb7a03a1f3}, !- Handle
  0800|1700|Bank|default|hoo,             !- Name
  {cb75b06e-ce13-4249-aa24-57e61fbbee61}, !- Schedule Type Limits Name
  {52159611-1b37-451f-a91d-0d3e487ec4e2}, !- Default Day Schedule Name
  {7a6aee22-e446-4a72-a7e0-74235deacda2}, !- Summer Design Day Schedule Name
  {f976bfe1-0091-4a8f-bd13-86ff4916965b}; !- Winter Design Day Schedule Name

OS:Schedule:Day,
  {52159611-1b37-451f-a91d-0d3e487ec4e2}, !- Handle
  0800|1700|Bank|default|hoo Schedule Week Day, !- Name
  {cb75b06e-ce13-4249-aa24-57e61fbbee61}, !- Schedule Type Limits Name
  ,                                       !- Interpolate to Timestep
  8,                                      !- Hour 1
  0,                                      !- Minute 1
  0,                                      !- Value Until Time 1
  17,                                     !- Hour 2
  0,                                      !- Minute 2
  1,                                      !- Value Until Time 2
  24,                                     !- Hour 3
  0,                                      !- Minute 3
  0;                                      !- Value Until Time 3

OS:Schedule:Day,
  {8de5440f-2a0f-4504-9dfe-6d004e5a0783}, !- Handle
  Schedule Day 2,                         !- Name
  ,                                       !- Schedule Type Limits Name
  ,                                       !- Interpolate to Timestep
  24,                                     !- Hour 1
  0,                                      !- Minute 1
  0;                                      !- Value Until Time 1

OS:Schedule:Day,
  {f976bfe1-0091-4a8f-bd13-86ff4916965b}, !- Handle
  0800|1700|Bank|default|hoo Winter Design Day, !- Name
  {cb75b06e-ce13-4249-aa24-57e61fbbee61}, !- Schedule Type Limits Name
  ,                                       !- Interpolate to Timestep
  24,                                     !- Hour 1
  0,                                      !- Minute 1
  0;                                      !- Value Until Time 1

OS:Schedule:Day,
  {7001627b-2656-4839-bdb5-171ca91ad90c}, !- Handle
  Schedule Day 3,                         !- Name
  ,                                       !- Schedule Type Limits Name
  ,                                       !- Interpolate to Timestep
  24,                                     !- Hour 1
  0,                                      !- Minute 1
  0;                                      !- Value Until Time 1

OS:Schedule:Day,
  {7a6aee22-e446-4a72-a7e0-74235deacda2}, !- Handle
  0800|1700|Bank|default|hoo Summer Design Day, !- Name
  {cb75b06e-ce13-4249-aa24-57e61fbbee61}, !- Schedule Type Limits Name
  ,                                       !- Interpolate to Timestep
  24,                                     !- Hour 1
  0,                                      !- Minute 1
  1;                                      !- Value Until Time 1

OS:DefaultScheduleSet,
  {4f229967-0022-445f-8f26-e1ea8b8782c1}, !- Handle
  Building Hours of Operation,            !- Name
  {43d8a966-2620-4402-a0cc-cebb7a03a1f3}, !- Hours of Operation Schedule Name
  ,                                       !- Number of People Schedule Name
  ,                                       !- People Activity Level Schedule Name
  ,                                       !- Lighting Schedule Name
  ,                                       !- Electric Equipment Schedule Name
  ,                                       !- Gas Equipment Schedule Name
  ,                                       !- Hot Water Equipment Schedule Name
  ,                                       !- Infiltration Schedule Name
  ,                                       !- Steam Equipment Schedule Name
  ;                                       !- Other Equipment Schedule Name

OS:ScheduleTypeLimits,
  {cb75b06e-ce13-4249-aa24-57e61fbbee61}, !- Handle
  OnOff,                                  !- Name
  0,                                      !- Lower Limit Value {BasedOnField A4}
  1,                                      !- Upper Limit Value {BasedOnField A4}
  Discrete,                               !- Numeric Type
  Availability;                           !- Unit Type

OS:Schedule:Ruleset,
  {0f278888-c7a6-466c-a9d2-b2aaa2a2dc0f}, !- Handle
  0800|1700|Bank|default|activity,        !- Name
  {c6626613-4edb-438e-a959-0498e00063c7}, !- Schedule Type Limits Name
  {204fc485-2626-4a02-b56c-ae83fe4121ba}, !- Default Day Schedule Name
  {adb2a1cf-b012-421e-b357-c01c7bbafcd7}, !- Summer Design Day Schedule Name
  {d9440bdb-8ef6-45bd-b221-5a8cc9fc00d9}; !- Winter Design Day Schedule Name

OS:ScheduleTypeLimits,
  {c6626613-4edb-438e-a959-0498e00063c7}, !- Handle
  People Activity Type Limits,            !- Name
  0,                                      !- Lower Limit Value {BasedOnField A4}
  ,                                       !- Upper Limit Value {BasedOnField A4}
  Continuous,                             !- Numeric Type
  ActivityLevel;                          !- Unit Type

OS:Schedule:Day,
  {204fc485-2626-4a02-b56c-ae83fe4121ba}, !- Handle
  0800|1700|Bank|default|activity |default, !- Name
  {c6626613-4edb-438e-a959-0498e00063c7}, !- Schedule Type Limits Name
  ,                                       !- Interpolate to Timestep
  24,                                     !- Hour 1
  0,                                      !- Minute 1
  120;                                    !- Value Until Time 1

OS:Schedule:Day,
  {adb2a1cf-b012-421e-b357-c01c7bbafcd7}, !- Handle
  0800|1700|Bank|default|activity Summer Design Day, !- Name
  {c6626613-4edb-438e-a959-0498e00063c7}, !- Schedule Type Limits Name
  ,                                       !- Interpolate to Timestep
  24,                                     !- Hour 1
  0,                                      !- Minute 1
  120;                                    !- Value Until Time 1

OS:Schedule:Day,
  {d9440bdb-8ef6-45bd-b221-5a8cc9fc00d9}, !- Handle
  0800|1700|Bank|default|activity Winter Design Day, !- Name
  {c6626613-4edb-438e-a959-0498e00063c7}, !- Schedule Type Limits Name
  ,                                       !- Interpolate to Timestep
  24,                                     !- Hour 1
  0,                                      !- Minute 1
  120;                                    !- Value Until Time 1

OS:Schedule:Ruleset,
  {26278dd6-180a-4195-94c3-2f771e0d6c19}, !- Handle
  0800|1700|Bank|default|elec_equip,      !- Name
  {8d7777bc-e9a0-49ec-b348-d0cfec734b4f}, !- Schedule Type Limits Name
  {03e0c776-76cd-4a92-9703-2c9242355944}, !- Default Day Schedule Name
  {9f2a86ee-4465-4345-82dd-3709eee60b80}, !- Summer Design Day Schedule Name
  {1915ded1-bc81-4f52-bd75-48f2d8b16f7f}; !- Winter Design Day Schedule Name

OS:ScheduleTypeLimits,
  {8d7777bc-e9a0-49ec-b348-d0cfec734b4f}, !- Handle
  Equipment Schedule Type Limits,         !- Name
  0,                                      !- Lower Limit Value {BasedOnField A4}
  1,                                      !- Upper Limit Value {BasedOnField A4}
  Continuous,                             !- Numeric Type
  Dimensionless;                          !- Unit Type

OS:Schedule:Day,
  {03e0c776-76cd-4a92-9703-2c9242355944}, !- Handle
  0800|1700|Bank|default|elec_equip |default, !- Name
  {8d7777bc-e9a0-49ec-b348-d0cfec734b4f}, !- Schedule Type Limits Name
  ,                                       !- Interpolate to Timestep
  8,                                      !- Hour 1
  0,                                      !- Minute 1
  0.4,                                    !- Value Until Time 1
  12,                                     !- Hour 2
  0,                                      !- Minute 2
  0.9,                                    !- Value Until Time 2
  13,                                     !- Hour 3
  0,                                      !- Minute 3
  0.8,                                    !- Value Until Time 3
  16,                                     !- Hour 4
  0,                                      !- Minute 4
  0.9,                                    !- Value Until Time 4
  16,                                     !- Hour 5
  30,                                     !- Minute 5
  0.8,                                    !- Value Until Time 5
  17,                                     !- Hour 6
  0,                                      !- Minute 6
  0.7,                                    !- Value Until Time 6
  17,                                     !- Hour 7
  30,                                     !- Minute 7
  0.6,                                    !- Value Until Time 7
  18,                                     !- Hour 8
  0,                                      !- Minute 8
  0.5,                                    !- Value Until Time 8
  18,                                     !- Hour 9
  30,                                     !- Minute 9
  0.49,                                   !- Value Until Time 9
  19,                                     !- Hour 10
  0,                                      !- Minute 10
  0.48,                                   !- Value Until Time 10
  19,                                     !- Hour 11
  30,                                     !- Minute 11
  0.47,                                   !- Value Until Time 11
  20,                                     !- Hour 12
  0,                                      !- Minute 12
  0.46,                                   !- Value Until Time 12
  20,                                     !- Hour 13
  30,                                     !- Minute 13
  0.45,                                   !- Value Until Time 13
  21,                                     !- Hour 14
  0,                                      !- Minute 14
  0.44,                                   !- Value Until Time 14
  21,                                     !- Hour 15
  30,                                     !- Minute 15
  0.43,                                   !- Value Until Time 15
  22,                                     !- Hour 16
  0,                                      !- Minute 16
  0.42,                                   !- Value Until Time 16
  22,                                     !- Hour 17
  30,                                     !- Minute 17
  0.41,                                   !- Value Until Time 17
  24,                                     !- Hour 18
  0,                                      !- Minute 18
  0.4;                                    !- Value Until Time 18

OS:Schedule:Day,
  {9f2a86ee-4465-4345-82dd-3709eee60b80}, !- Handle
  0800|1700|Bank|default|elec_equip Summer Design Day, !- Name
  {8d7777bc-e9a0-49ec-b348-d0cfec734b4f}, !- Schedule Type Limits Name
  ,                                       !- Interpolate to Timestep
  24,                                     !- Hour 1
  0,                                      !- Minute 1
  1;                                      !- Value Until Time 1

OS:Schedule:Day,
  {1915ded1-bc81-4f52-bd75-48f2d8b16f7f}, !- Handle
  0800|1700|Bank|default|elec_equip Winter Design Day, !- Name
  {8d7777bc-e9a0-49ec-b348-d0cfec734b4f}, !- Schedule Type Limits Name
  ,                                       !- Interpolate to Timestep
  24,                                     !- Hour 1
  0,                                      !- Minute 1
  0.4;                                    !- Value Until Time 1

OS:Schedule:Rule,
  {6df24fff-a122-4ea0-8bd3-db99465087e6}, !- Handle
  0800|1700|Bank|default|elec_equip |1/1-12/31|Sun Rule, !- Name
  {26278dd6-180a-4195-94c3-2f771e0d6c19}, !- Schedule Ruleset Name
  0,                                      !- Rule Order
  {42258f7d-1050-4959-a43b-86bb6e80d9b1}, !- Day Schedule Name
  Yes,                                    !- Apply Sunday
  ,                                       !- Apply Monday
  ,                                       !- Apply Tuesday
  ,                                       !- Apply Wednesday
  ,                                       !- Apply Thursday
  ,                                       !- Apply Friday
  ,                                       !- Apply Saturday
  ,                                       !- Apply Holiday
  DateRange,                              !- Date Specification Type
  1,                                      !- Start Month
  1,                                      !- Start Day
  12,                                     !- End Month
  31;                                     !- End Day

OS:Schedule:Day,
  {42258f7d-1050-4959-a43b-86bb6e80d9b1}, !- Handle
  0800|1700|Bank|default|elec_equip |1/1-12/31|Sun, !- Name
  {8d7777bc-e9a0-49ec-b348-d0cfec734b4f}, !- Schedule Type Limits Name
  ,                                       !- Interpolate to Timestep
  24,                                     !- Hour 1
  0,                                      !- Minute 1
  0.3;                                    !- Value Until Time 1

OS:Schedule:Rule,
  {c54aaba6-fc43-4a1d-a472-1e1f6be5f39d}, !- Handle
  0800|1700|Bank|default|elec_equip |1/1-12/31|Sat Rule, !- Name
  {26278dd6-180a-4195-94c3-2f771e0d6c19}, !- Schedule Ruleset Name
  1,                                      !- Rule Order
  {7a065a82-bd8c-4247-a629-08c90de2f9cf}, !- Day Schedule Name
  ,                                       !- Apply Sunday
  ,                                       !- Apply Monday
  ,                                       !- Apply Tuesday
  ,                                       !- Apply Wednesday
  ,                                       !- Apply Thursday
  ,                                       !- Apply Friday
  Yes,                                    !- Apply Saturday
  ,                                       !- Apply Holiday
  DateRange,                              !- Date Specification Type
  1,                                      !- Start Month
  1,                                      !- Start Day
  12,                                     !- End Month
  31;                                     !- End Day

OS:Schedule:Day,
  {7a065a82-bd8c-4247-a629-08c90de2f9cf}, !- Handle
  0800|1700|Bank|default|elec_equip |1/1-12/31|Sat, !- Name
  {8d7777bc-e9a0-49ec-b348-d0cfec734b4f}, !- Schedule Type Limits Name
  ,                                       !- Interpolate to Timestep
  5,                                      !- Hour 1
  0,                                      !- Minute 1
  0.3,                                    !- Value Until Time 1
  5,                                      !- Hour 2
  30,                                     !- Minute 2
  0.33,                                   !- Value Until Time 2
  6,                                      !- Hour 3
  0,                                      !- Minute 3
  0.37,                                   !- Value Until Time 3
  6,                                      !- Hour 4
  30,                                     !- Minute 4
  0.4,                                    !- Value Until Time 4
  7,                                      !- Hour 5
  0,                                      !- Minute 5
  0.43,                                   !- Value Until Time 5
  7,                                      !- Hour 6
  30,                                     !- Minute 6
  0.47,                                   !- Value Until Time 6
  13,                                     !- Hour 7
  0,                                      !- Minute 7
  0.5,                                    !- Value Until Time 7
  13,                                     !- Hour 8
  30,                                     !- Minute 8
  0.48,                                   !- Value Until Time 8
  14,                                     !- Hour 9
  0,                                      !- Minute 9
  0.46,                                   !- Value Until Time 9
  14,                                     !- Hour 10
  30,                                     !- Minute 10
  0.44,                                   !- Value Until Time 10
  15,                                     !- Hour 11
  0,                                      !- Minute 11
  0.42,                                   !- Value Until Time 11
  15,                                     !- Hour 12
  30,                                     !- Minute 12
  0.4,                                    !- Value Until Time 12
  16,                                     !- Hour 13
  0,                                      !- Minute 13
  0.38,                                   !- Value Until Time 13
  16,                                     !- Hour 14
  30,                                     !- Minute 14
  0.36,                                   !- Value Until Time 14
  17,                                     !- Hour 15
  0,                                      !- Minute 15
  0.34,                                   !- Value Until Time 15
  17,                                     !- Hour 16
  30,                                     !- Minute 16
  0.32,                                   !- Value Until Time 16
  24,                                     !- Hour 17
  0,                                      !- Minute 17
  0.3;                                    !- Value Until Time 17

OS:Schedule:Ruleset,
  {ceab489e-3823-46b0-ba02-bca035e30d7c}, !- Handle
  0800|1700|Bank|default|thermal_ctrl,    !- Name
  {0567a0bc-b8b4-4532-b46c-e78f6fb6ca8f}, !- Schedule Type Limits Name
  {e24391c7-5d14-42af-970c-5b7f383570bd}, !- Default Day Schedule Name
  {4077358c-7c8f-458c-b942-dd2d3c3deb5d}, !- Summer Design Day Schedule Name
  {6df292a3-650e-4c7f-b3e6-959dac99dd6b}; !- Winter Design Day Schedule Name

OS:ScheduleTypeLimits,
  {0567a0bc-b8b4-4532-b46c-e78f6fb6ca8f}, !- Handle
  Dimensionless Schedule Type Limits,     !- Name
  ,                                       !- Lower Limit Value {BasedOnField A4}
  ,                                       !- Upper Limit Value {BasedOnField A4}
  Continuous,                             !- Numeric Type
  Dimensionless;                          !- Unit Type

OS:Schedule:Day,
  {e24391c7-5d14-42af-970c-5b7f383570bd}, !- Handle
  0800|1700|Bank|default|thermal_ctrl |default, !- Name
  {0567a0bc-b8b4-4532-b46c-e78f6fb6ca8f}, !- Schedule Type Limits Name
  ,                                       !- Interpolate to Timestep
  24,                                     !- Hour 1
  0,                                      !- Minute 1
  4;                                      !- Value Until Time 1

OS:Schedule:Day,
  {4077358c-7c8f-458c-b942-dd2d3c3deb5d}, !- Handle
  0800|1700|Bank|default|thermal_ctrl Summer Design Day, !- Name
  {0567a0bc-b8b4-4532-b46c-e78f6fb6ca8f}, !- Schedule Type Limits Name
  ,                                       !- Interpolate to Timestep
  24,                                     !- Hour 1
  0,                                      !- Minute 1
  4;                                      !- Value Until Time 1

OS:Schedule:Day,
  {6df292a3-650e-4c7f-b3e6-959dac99dd6b}, !- Handle
  0800|1700|Bank|default|thermal_ctrl Winter Design Day, !- Name
  {0567a0bc-b8b4-4532-b46c-e78f6fb6ca8f}, !- Schedule Type Limits Name
  ,                                       !- Interpolate to Timestep
  24,                                     !- Hour 1
  0,                                      !- Minute 1
  4;                                      !- Value Until Time 1

OS:Schedule:Ruleset,
  {ca7dc211-28ba-4a57-823a-22b4e5e807d4}, !- Handle
  0800|1700|Bank|default|clothing,        !- Name
  {0567a0bc-b8b4-4532-b46c-e78f6fb6ca8f}, !- Schedule Type Limits Name
  {cb16c5f3-e368-44ef-9df9-31d7f16ddc3c}, !- Default Day Schedule Name
  {48b62341-0146-44ad-b5ef-73deca6fd7be}, !- Summer Design Day Schedule Name
  {446319e0-444b-44ce-82ff-74a7382c03d8}; !- Winter Design Day Schedule Name

OS:Schedule:Day,
  {cb16c5f3-e368-44ef-9df9-31d7f16ddc3c}, !- Handle
  0800|1700|Bank|default|clothing |default, !- Name
  {0567a0bc-b8b4-4532-b46c-e78f6fb6ca8f}, !- Schedule Type Limits Name
  ,                                       !- Interpolate to Timestep
  24,                                     !- Hour 1
  0,                                      !- Minute 1
  0.9;                                    !- Value Until Time 1

OS:Schedule:Day,
  {48b62341-0146-44ad-b5ef-73deca6fd7be}, !- Handle
  0800|1700|Bank|default|clothing Summer Design Day, !- Name
  {0567a0bc-b8b4-4532-b46c-e78f6fb6ca8f}, !- Schedule Type Limits Name
  ,                                       !- Interpolate to Timestep
  24,                                     !- Hour 1
  0,                                      !- Minute 1
  0.9;                                    !- Value Until Time 1

OS:Schedule:Day,
  {446319e0-444b-44ce-82ff-74a7382c03d8}, !- Handle
  0800|1700|Bank|default|clothing Winter Design Day, !- Name
  {0567a0bc-b8b4-4532-b46c-e78f6fb6ca8f}, !- Schedule Type Limits Name
  ,                                       !- Interpolate to Timestep
  24,                                     !- Hour 1
  0,                                      !- Minute 1
  0.9;                                    !- Value Until Time 1

OS:Schedule:Rule,
  {05fdb4f6-4ef2-4c15-bf10-85d532d03a7f}, !- Handle
  0800|1700|Bank|default|clothing |7/1-9/30|Mon/Tue/Wed/Thu/Fri/Sat/Sun Rule, !- Name
  {ca7dc211-28ba-4a57-823a-22b4e5e807d4}, !- Schedule Ruleset Name
  0,                                      !- Rule Order
  {b65e47f8-8e33-489e-bee6-9f10178afb87}, !- Day Schedule Name
  Yes,                                    !- Apply Sunday
  Yes,                                    !- Apply Monday
  Yes,                                    !- Apply Tuesday
  Yes,                                    !- Apply Wednesday
  Yes,                                    !- Apply Thursday
  Yes,                                    !- Apply Friday
  Yes,                                    !- Apply Saturday
  ,                                       !- Apply Holiday
  DateRange,                              !- Date Specification Type