
OS:Version,
  {77a79dd6-5f73-4d88-b01e-d2af4f488f27}, !- Handle
  1.5.5;                                  !- Version Identifier

OS:ClimateZones,
  {135edfab-17e7-40db-a436-27d385a8cd6d}, !- Handle
  ,                                       !- Active Institution
  ,                                       !- Active Year
  ASHRAE,                                 !- Climate Zone Institution Name 1
  ANSI/ASHRAE Standard 169,               !- Climate Zone Document Name 1
  2006,                                   !- Climate Zone Document Year 1
  ,                                       !- Climate Zone Value 1
  CEC,                                    !- Climate Zone Institution Name 2
  California Climate Zone Descriptions,   !- Climate Zone Document Name 2
  1995,                                   !- Climate Zone Document Year 2
  ;                                       !- Climate Zone Value 2

OS:YearDescription,
  {513d8dda-86cb-442a-b01c-1f7f0e0ac70e}; !- Handle

OS:RadianceParameters,
  {270a96f1-3c86-4b75-a667-cdf22790e2c8}, !- Handle
  1,                                      !- Accumulated Rays per Record
  0,                                      !- Direct Threshold
  1,                                      !- Direct Certainty
  1,                                      !- Direct Jitter
  1,                                      !- Direct Pretest
  6,                                      !- Ambient Bounces VMX
  2,                                      !- Ambient Bounces DMX
  4050,                                   !- Ambient Divisions VMX
  512,                                    !- Ambient Divisions DMX
  256,                                    !- Ambient Supersamples
  0.001,                                  !- Limit Weight VMX
  0.001,                                  !- Limit Weight DMX
  500,                                    !- Klems Sampling Density
  146;                                    !- Sky Discretization Resolution

OS:SimulationControl,
  {2c487a4c-bac9-4ac5-b669-1e49d9da7c2b}, !- Handle
  ,                                       !- Do Zone Sizing Calculation
  ,                                       !- Do System Sizing Calculation
  ,                                       !- Do Plant Sizing Calculation
  No,                                     !- Run Simulation for Sizing Periods
  ,                                       !- Run Simulation for Weather File Run Periods
  0.04,                                   !- Loads Convergence Tolerance Value
  ,                                       !- Temperature Convergence Tolerance Value {deltaC}
  ,                                       !- Solar Distribution
  ,                                       !- Maximum Number of Warmup Days
  2;                                      !- Minimum Number of Warmup Days

OS:Sizing:Parameters,
  {dde5af6f-7923-4600-a28a-7556673a0266}, !- Handle
  1.25,                                   !- Heating Sizing Factor
  1.15;                                   !- Cooling Sizing Factor

OS:ProgramControl,
  {05027a99-f2b3-4aeb-afc6-1425fbb4371d}; !- Handle

OS:Timestep,
  {4ebc9f1e-4707-402e-9844-67eb1ffbd522}, !- Handle
  2;                                      !- Number of Timesteps per Hour

OS:OutputControl:ReportingTolerances,
  {65797aa2-06a9-45fe-b69d-bc6e060399d3}; !- Handle

OS:ConvergenceLimits,
  {9fc11aba-8822-4f3d-970c-46391ba4040d}; !- Handle

OS:ShadowCalculation,
  {ca758bea-4416-4626-9bba-3d8795c79bd6}, !- Handle
  7,                                      !- Calculation Frequency
  15000;                                  !- Maximum Figures in Shadow Overlap Calculations

OS:SurfaceConvectionAlgorithm:Inside,
  {aaabfc36-718a-4ab0-b622-f186ebb45230}, !- Handle
  TARP;                                   !- Algorithm

OS:SurfaceConvectionAlgorithm:Outside,
  {9a0a9f6f-4bbd-4b12-a121-9492a1fcd7d6}, !- Handle
  DOE-2;                                  !- Algorithm

OS:HeatBalanceAlgorithm,
  {9d93e563-e1e0-46d7-9e39-d1c8aceb7212}, !- Handle
  ConductionTransferFunction,             !- Algorithm
  200;                                    !- Surface Temperature Upper Limit {F}

OS:ZoneAirHeatBalanceAlgorithm,
  {8520d93e-310f-4696-9bcd-36228bfdd743}, !- Handle
  AnalyticalSolution;                     !- Algorithm

OS:ZoneAirContaminantBalance,
  {eb5fc3ae-fb22-4160-8fcb-3e3b22b000d3}; !- Handle

OS:ZoneCapacitanceMultiplier:ResearchSpecial,
  {4020ce4f-5a7a-4849-8028-8305d7b751b1}, !- Handle
  ,                                       !- Temperature Capacity Multiplier
  ,                                       !- Humidity Capacity Multiplier
  ;                                       !- Carbon Dioxide Capacity Multiplier

OS:RunPeriod,
  {28df894d-6af9-4fb8-8f56-df1753344aa3}, !- Handle
  Run Period 1,                           !- Name
  1,                                      !- Begin Month
  1,                                      !- Begin Day of Month
  12,                                     !- End Month
  31,                                     !- End Day of Month
  ,                                       !- Use Weather File Holidays and Special Days
  ,                                       !- Use Weather File Daylight Saving Period
  ,                                       !- Apply Weekend Holiday Rule
  ,                                       !- Use Weather File Rain Indicators
  ,                                       !- Use Weather File Snow Indicators
  ;                                       !- Number of Times Runperiod to be Repeated

OS:Building,
  {bf305633-c5a1-4881-9edf-ca5e1a8e1274}, !- Handle
  Building 1,                             !- Name
  ,                                       !- Building Sector Type
  ,                                       !- North Axis {deg}
  ,                                       !- Nominal Floor to Floor Height {m}
  ,                                       !- Space Type Name
  ,                                       !- Default Construction Set Name
  {803671bf-5e1f-4478-bf33-b5348c98206f}, !- Default Schedule Set Name
  ,                                       !- Standards Number of Stories
  ,                                       !- Standards Number of Above Ground Stories
  Bank;                                   !- Standards Building Type

OS:LifeCycleCost:Parameters,
  {231cf8a0-f0e7-4251-a99f-11f0d464e661}, !- Handle
  FEMP,                                   !- Analysis Type
  ,                                       !- Discounting Convention
  ,                                       !- Inflation Approach
  ,                                       !- Real Discount Rate
  ,                                       !- Nominal Discount Rate
  ,                                       !- Inflation
  ,                                       !- Base Date Month
  ,                                       !- Base Date Year
  ,                                       !- Service Date Month
  ,                                       !- Service Date Year
  ,                                       !- Length of Study Period in Years
  ,                                       !- Tax Rate
  ,                                       !- Depreciation Method
  Yes;                                    !- Use NIST Fuel Escalation Rates

OS:Facility,
  {3ba8e45b-b833-44eb-a723-ea6c3946dc96}; !- Handle

OS:SpaceType,
  {3eae8219-a15a-4a1e-aeda-340a0031d9a5}, !- Handle
  Bank|BlendFront|DOE Ref Pre-1980|ASHRAE 169-2006-5A, !- Name
  {6ccc3eb4-7b19-4ebc-9bc9-309f8f63a824}, !- Default Construction Set Name
  ,                                       !- Default Schedule Set Name
  {cf4fcde9-573f-43ca-969f-4a74ed3a0e0d}, !- Group Rendering Name
  {5bb61d01-4c1c-4aba-86f1-1adf1d6748d2}, !- Design Specification Outdoor Air Object Name
  Bank,                                   !- Standards Building Type
  BlendFront;                             !- Standards Space Type

OS:Rendering:Color,
  {cf4fcde9-573f-43ca-969f-4a74ed3a0e0d}, !- Handle
  Rendering Color 1,                      !- Name
  230,                                    !- Rendering Red Value
  157,                                    !- Rendering Green Value
  120;                                    !- Rendering Blue Value

OS:SpaceType,
  {eaa27f0d-8867-4ae5-845f-73bb07ee3dda}, !- Handle
  Bank|Elec/MechRoom|DOE Ref Pre-1980|ASHRAE 169-2006-5A, !- Name
  {6ccc3eb4-7b19-4ebc-9bc9-309f8f63a824}, !- Default Construction Set Name
  {726de029-9a92-4e8e-b2ea-dda81b357a76}, !- Default Schedule Set Name
  {c2bbf64c-268b-4fbc-9c9a-ef267941cd59}, !- Group Rendering Name
  {b581e6d0-be28-4872-b086-18577a422133}, !- Design Specification Outdoor Air Object Name
  Bank,                                   !- Standards Building Type
  Elec/MechRoom;                          !- Standards Space Type

OS:Rendering:Color,
  {c2bbf64c-268b-4fbc-9c9a-ef267941cd59}, !- Handle
  Rendering Color 2,                      !- Name
  41,                                     !- Rendering Red Value
  31,                                     !- Rendering Green Value
  169;                                    !- Rendering Blue Value

OS:SpaceType,
  {1e094d48-af7d-4b8d-aa5f-2d9b3988b0e6}, !- Handle
  Bank|Restroom|DOE Ref Pre-1980|ASHRAE 169-2006-5A, !- Name
  {6ccc3eb4-7b19-4ebc-9bc9-309f8f63a824}, !- Default Construction Set Name
  {29cd3844-503c-48ec-95d2-bf9c967d99c1}, !- Default Schedule Set Name
  {bb56e021-62c6-4459-be01-05c1e73fbbc8}, !- Group Rendering Name
  {9461627c-a08f-4617-b6cd-fe8fb7da3b7d}, !- Design Specification Outdoor Air Object Name
  Bank,                                   !- Standards Building Type
  Restroom;                               !- Standards Space Type

OS:Rendering:Color,
  {bb56e021-62c6-4459-be01-05c1e73fbbc8}, !- Handle
  Rendering Color 3,                      !- Name
  169,                                    !- Rendering Red Value
  169,                                    !- Rendering Green Value
  31;                                     !- Rendering Blue Value

OS:SpaceType,
  {37206fe5-ad92-4c5e-83c0-05ab919c9862}, !- Handle
  Bank|Vault|DOE Ref Pre-1980|ASHRAE 169-2006-5A, !- Name
  {6ccc3eb4-7b19-4ebc-9bc9-309f8f63a824}, !- Default Construction Set Name
  {073c743b-36b6-41fa-9962-d6b356983a0c}, !- Default Schedule Set Name
  {15fcfd63-d4cd-4e7c-a8c1-360e66796044}, !- Group Rendering Name
  {78bd6593-9bb6-4174-9694-88c3997cde1f}, !- Design Specification Outdoor Air Object Name
  Bank,                                   !- Standards Building Type
  Vault;                                  !- Standards Space Type

OS:Rendering:Color,
  {15fcfd63-d4cd-4e7c-a8c1-360e66796044}, !- Handle
  Rendering Color 4,                      !- Name
  120,                                    !- Rendering Red Value
  120,                                    !- Rendering Green Value
  120;                                    !- Rendering Blue Value

OS:Schedule:Ruleset,
  {18dc05b6-6ff1-44b4-9a1d-b419d44a6803}, !- Handle
  0800|1700|Bank|default|hoo,             !- Name
  {06c63800-7f66-4b21-a36d-8bf65c302cab}, !- Schedule Type Limits Name
  {280f572b-b27d-4ca0-b7d2-5b65afcde6d8}, !- Default Day Schedule Name
  {a60c6894-6134-471e-a98c-57eda73559ed}, !- Summer Design Day Schedule Name
  {b8340893-f984-4458-b788-baa9634f021a}; !- Winter Design Day Schedule Name

OS:Schedule:Day,
  {280f572b-b27d-4ca0-b7d2-5b65afcde6d8}, !- Handle
  0800|1700|Bank|default|hoo Schedule Week Day, !- Name
  {06c63800-7f66-4b21-a36d-8bf65c302cab}, !- Schedule Type Limits Name
  ,                                       !- Interpolate to Timestep
  8,                                      !- Hour 1
  0,                                      !- Minute 1
  0,                                      !- Value Until Time 1
  17,                                     !- Hour 2
  0,                                      !- Minute 2
  1,                                      !- Value Until Time 2
  24,                                     !- Hour 3
  0,                                      !- Minute 3
  0;                                      !- Value Until Time 3

OS:Schedule:Day,
  {fa9f63f9-19db-4737-9a06-f2175bf7a7d7}, !- Handle
  Schedule Day 2,                         !- Name
  ,                                       !- Schedule Type Limits Name
  ,                                       !- Interpolate to Timestep
  24,                                     !- Hour 1
  0,                                      !- Minute 1
  0;                                      !- Value Until Time 1

OS:Schedule:Day,
  {b8340893-f984-4458-b788-baa9634f021a}, !- Handle
  0800|1700|Bank|default|hoo Winter Design Day, !- Name
  {06c63800-7f66-4b21-a36d-8bf65c302cab}, !- Schedule Type Limits Name
  ,                                       !- Interpolate to Timestep
  24,                                     !- Hour 1
  0,                                      !- Minute 1
  0;                                      !- Value Until Time 1

OS:Schedule:Day,
  {fc8ef937-a8e7-418f-ac76-651f02275eae}, !- Handle
  Schedule Day 3,                         !- Name
  ,                                       !- Schedule Type Limits Name
  ,                                       !- Interpolate to Timestep
  24,                                     !- Hour 1
  0,                                      !- Minute 1
  0;                                      !- Value Until Time 1

OS:Schedule:Day,
  {a60c6894-6134-471e-a98c-57eda73559ed}, !- Handle
  0800|1700|Bank|default|hoo Summer Design Day, !- Name
  {06c63800-7f66-4b21-a36d-8bf65c302cab}, !- Schedule Type Limits Name
  ,                                       !- Interpolate to Timestep
  24,                                     !- Hour 1
  0,                                      !- Minute 1
  1;                                      !- Value Until Time 1

OS:DefaultScheduleSet,
  {803671bf-5e1f-4478-bf33-b5348c98206f}, !- Handle
  Building Hours of Operation,            !- Name
  {18dc05b6-6ff1-44b4-9a1d-b419d44a6803}, !- Hours of Operation Schedule Name
  ,                                       !- Number of People Schedule Name
  ,                                       !- People Activity Level Schedule Name
  ,                                       !- Lighting Schedule Name
  ,                                       !- Electric Equipment Schedule Name
  ,                                       !- Gas Equipment Schedule Name
  ,                                       !- Hot Water Equipment Schedule Name
  ,                                       !- Infiltration Schedule Name
  ,                                       !- Steam Equipment Schedule Name
  ;                                       !- Other Equipment Schedule Name

OS:ScheduleTypeLimits,
  {06c63800-7f66-4b21-a36d-8bf65c302cab}, !- Handle
  OnOff,                                  !- Name
  0,                                      !- Lower Limit Value {BasedOnField A4}
  1,                                      !- Upper Limit Value {BasedOnField A4}
  Discrete,                               !- Numeric Type
  Availability;                           !- Unit Type

OS:Schedule:Ruleset,
  {7e8d66cc-1d50-4c5f-8894-721f29ffb157}, !- Handle
  0800|1700|Bank|default|rh,              !- Name
  {f4bac5e3-9f2a-4975-98e8-8f04d4ed5e2d}, !- Schedule Type Limits Name
  {c1473b39-9f40-4096-b6f1-0134ad30bfc7}, !- Default Day Schedule Name
  {abf91d0e-029d-4144-a24a-8700a016a99d}, !- Summer Design Day Schedule Name
  {21525f3c-d7b9-4241-8778-2f453b58efa8}; !- Winter Design Day Schedule Name

OS:ScheduleTypeLimits,
  {f4bac5e3-9f2a-4975-98e8-8f04d4ed5e2d}, !- Handle
  Dimensionless Schedule Type Limits,     !- Name
  ,                                       !- Lower Limit Value {BasedOnField A4}
  ,                                       !- Upper Limit Value {BasedOnField A4}
  Continuous,                             !- Numeric Type
  Dimensionless;                          !- Unit Type

OS:Schedule:Day,
  {c1473b39-9f40-4096-b6f1-0134ad30bfc7}, !- Handle
  0800|1700|Bank|default|rh |default,     !- Name
  {f4bac5e3-9f2a-4975-98e8-8f04d4ed5e2d}, !- Schedule Type Limits Name
  ,                                       !- Interpolate to Timestep
  24,                                     !- Hour 1
  0,                                      !- Minute 1
  50;                                     !- Value Until Time 1

OS:Schedule:Day,
  {abf91d0e-029d-4144-a24a-8700a016a99d}, !- Handle
  0800|1700|Bank|default|rh Summer Design Day, !- Name
  {f4bac5e3-9f2a-4975-98e8-8f04d4ed5e2d}, !- Schedule Type Limits Name
  ,                                       !- Interpolate to Timestep
  24,                                     !- Hour 1
  0,                                      !- Minute 1
  50;                                     !- Value Until Time 1

OS:Schedule:Day,
  {21525f3c-d7b9-4241-8778-2f453b58efa8}, !- Handle
  0800|1700|Bank|default|rh Winter Design Day, !- Name
  {f4bac5e3-9f2a-4975-98e8-8f04d4ed5e2d}, !- Schedule Type Limits Name
  ,                                       !- Interpolate to Timestep
  24,                                     !- Hour 1
  0,                                      !- Minute 1
  50;                                     !- Value Until Time 1

OS:Schedule:Ruleset,
  {6972922b-0664-4481-8b61-fcbdd6bb390a}, !- Handle
  0800|1700|Bank|default|thermal_ctrl,    !- Name
  {f4bac5e3-9f2a-4975-98e8-8f04d4ed5e2d}, !- Schedule Type Limits Name
  {c62aaa84-e8df-4505-ac61-07db5ff5fe4b}, !- Default Day Schedule Name
  {5a86de16-61e7-4f54-86e8-ae1f9a408ff5}, !- Summer Design Day Schedule Name
  {604385bc-59a0-4b23-a318-c57640692107}; !- Winter Design Day Schedule Name

OS:Schedule:Day,
  {c62aaa84-e8df-4505-ac61-07db5ff5fe4b}, !- Handle
  0800|1700|Bank|default|thermal_ctrl |default, !- Name
  {f4bac5e3-9f2a-4975-98e8-8f04d4ed5e2d}, !- Schedule Type Limits Name
  ,                                       !- Interpolate to Timestep
  24,                                     !- Hour 1
  0,                                      !- Minute 1
  4;                                      !- Value Until Time 1

OS:Schedule:Day,
  {5a86de16-61e7-4f54-86e8-ae1f9a408ff5}, !- Handle
  0800|1700|Bank|default|thermal_ctrl Summer Design Day, !- Name
  {f4bac5e3-9f2a-4975-98e8-8f04d4ed5e2d}, !- Schedule Type Limits Name
  ,                                       !- Interpolate to Timestep
  24,                                     !- Hour 1
  0,                                      !- Minute 1
  4;                                      !- Value Until Time 1

OS:Schedule:Day,
  {604385bc-59a0-4b23-a318-c57640692107}, !- Handle
  0800|1700|Bank|default|thermal_ctrl Winter Design Day, !- Name
  {f4bac5e3-9f2a-4975-98e8-8f04d4ed5e2d}, !- Schedule Type Limits Name
  ,                                       !- Interpolate to Timestep
  24,                                     !- Hour 1
  0,                                      !- Minute 1
  4;                                      !- Value Until Time 1

OS:Schedule:Ruleset,
  {79034213-0ea9-41af-90d9-b58425b52a30}, !- Handle
  0800|1700|Bank|default|hvac,            !- Name
  {8ccf391c-e907-4fcf-a4ad-8eb75911a720}, !- Schedule Type Limits Name
  {e4d65c12-27cc-453b-b419-5464ab76db7c}, !- Default Day Schedule Name
  {70efaa20-2e59-4dbb-8366-c1f3a42457ff}, !- Summer Design Day Schedule Name
  {7444099e-1e18-4444-94e7-07e80f4bc050}; !- Winter Design Day Schedule Name

OS:ScheduleTypeLimits,
  {8ccf391c-e907-4fcf-a4ad-8eb75911a720}, !- Handle
  HVAC Operation Schedule Type Limits,    !- Name
  0,                                      !- Lower Limit Value {BasedOnField A4}
  1,                                      !- Upper Limit Value {BasedOnField A4}
  Discrete,                               !- Numeric Type
  Availability;                           !- Unit Type

OS:Schedule:Day,
  {e4d65c12-27cc-453b-b419-5464ab76db7c}, !- Handle
  0800|1700|Bank|default|hvac |default,   !- Name
  {8ccf391c-e907-4fcf-a4ad-8eb75911a720}, !- Schedule Type Limits Name
  ,                                       !- Interpolate to Timestep
  6,                                      !- Hour 1
  0,                                      !- Minute 1
  0,                                      !- Value Until Time 1
  22,                                     !- Hour 2
  0,                                      !- Minute 2
  1,                                      !- Value Until Time 2
  24,                                     !- Hour 3
  0,                                      !- Minute 3
  0;                                      !- Value Until Time 3

OS:Schedule:Day,
  {70efaa20-2e59-4dbb-8366-c1f3a42457ff}, !- Handle
  0800|1700|Bank|default|hvac Summer Design Day, !- Name
  {8ccf391c-e907-4fcf-a4ad-8eb75911a720}, !- Schedule Type Limits Name
  ,                                       !- Interpolate to Timestep
  6,                                      !- Hour 1
  0,                                      !- Minute 1
  0,                                      !- Value Until Time 1
  22,                                     !- Hour 2
  0,                                      !- Minute 2
  1,                                      !- Value Until Time 2
  24,                                     !- Hour 3
  0,                                      !- Minute 3
  0;                                      !- Value Until Time 3

OS:Schedule:Day,
  {7444099e-1e18-4444-94e7-07e80f4bc050}, !- Handle
  0800|1700|Bank|default|hvac Winter Design Day, !- Name
  {8ccf391c-e907-4fcf-a4ad-8eb75911a720}, !- Schedule Type Limits Name
  ,                                       !- Interpolate to Timestep
  6,                                      !- Hour 1
  0,                                      !- Minute 1
  0,                                      !- Value Until Time 1
  22,                                     !- Hour 2
  0,                                      !- Minute 2
  1,                                      !- Value Until Time 2
  24,                                     !- Hour 3
  0,                                      !- Minute 3
  0;                                      !- Value Until Time 3

OS:Schedule:Rule,
  {481afdd4-9d62-4c70-abc5-bcff5352a5ff}, !- Handle
  0800|1700|Bank|default|hvac |1/1-12/31|Sun Rule, !- Name
  {79034213-0ea9-41af-90d9-b58425b52a30}, !- Schedule Ruleset Name
  0,                                      !- Rule Order
  {b9dc3e74-2864-46ba-aa38-95ef6ac56036}, !- Day Schedule Name
  Yes,                                    !- Apply Sunday
  ,                                       !- Apply Monday
  ,                                       !- Apply Tuesday
  ,                                       !- Apply Wednesday
  ,                                       !- Apply Thursday
  ,                                       !- Apply Friday
  ,                                       !- Apply Saturday
  ,                                       !- Apply Holiday
  DateRange,                              !- Date Specification Type
  1,                                      !- Start Month
  1,                                      !- Start Day
  12,                                     !- End Month
  31;                                     !- End Day

OS:Schedule:Day,
  {b9dc3e74-2864-46ba-aa38-95ef6ac56036}, !- Handle
  0800|1700|Bank|default|hvac |1/1-12/31|Sun, !- Name
  {8ccf391c-e907-4fcf-a4ad-8eb75911a720}, !- Schedule Type Limits Name
  ,                                       !- Interpolate to Timestep
  24,                                     !- Hour 1
  0,                                      !- Minute 1
  0;                                      !- Value Until Time 1

OS:Schedule:Rule,
  {d95c0e0b-4f66-4c75-9a70-d0eb556e1b91}, !- Handle
  0800|1700|Bank|default|hvac |1/1-12/31|Sat Rule, !- Name
  {79034213-0ea9-41af-90d9-b58425b52a30}, !- Schedule Ruleset Name
  1,                                      !- Rule Order
  {b5627dc1-6a2a-41a7-aebf-410b0143ae42}, !- Day Schedule Name
  ,                                       !- Apply Sunday
  ,                                       !- Apply Monday
  ,                                       !- Apply Tuesday
  ,                                       !- Apply Wednesday
  ,                                       !- Apply Thursday
  ,                                       !- Apply Friday
  Yes,                                    !- Apply Saturday
  ,                                       !- Apply Holiday
  DateRange,                              !- Date Specification Type
  1,                                      !- Start Month
  1,                                      !- Start Day
  12,                                     !- End Month
  31;                                     !- End Day

OS:Schedule:Day,
  {b5627dc1-6a2a-41a7-aebf-410b0143ae42}, !- Handle
  0800|1700|Bank|default|hvac |1/1-12/31|Sat, !- Name
  {8ccf391c-e907-4fcf-a4ad-8eb75911a720}, !- Schedule Type Limits Name
  ,                                       !- Interpolate to Timestep
  6,                                      !- Hour 1
  0,                                      !- Minute 1
  0,                                      !- Value Until Time 1
  18,                                     !- Hour 2
  0,                                      !- Minute 2
  1,                                      !- Value Until Time 2
  24,                                     !- Hour 3
  0,                                      !- Minute 3
  0;                                      !- Value Until Time 3

OS:Schedule:Ruleset,
  {03ab139e-52a4-4ed8-afc4-10abf66a7cbd}, !- Handle
  0800|1700|Bank|default|clg_setpoint,    !- Name
  {ba4f64bf-7f47-466e-ab95-7dc5a0eda87e}, !- Schedule Type Limits Name
  {09b13798-b824-458a-ad7b-07d049b038bf}, !- Default Day Schedule Name
  {9d199aae-f9bf-4997-9033-8603642d35c8}, !- Summer Design Day Schedule Name
  {c625311c-f5ed-4ede-9ded-46c82e16af28}; !- Winter Design Day Schedule Name

OS:ScheduleTypeLimits,
  {ba4f64bf-7f47-466e-ab95-7dc5a0eda87e}, !- Handle
  Thermostat Cooling Setpoint Schedule Type Limits, !- Name
  0,                                      !- Lower Limit Value {BasedOnField A4}
  100,                                    !- Upper Limit Value {BasedOnField A4}
  Continuous,                             !- Numeric Type
  Temperature;                            !- Unit Type

OS:Schedule:Day,
  {09b13798-b824-458a-ad7b-07d049b038bf}, !- Handle
  0800|1700|Bank|default|clg_setpoint |default, !- Name
  {ba4f64bf-7f47-466e-ab95-7dc5a0eda87e}, !- Schedule Type Limits Name
  ,                                       !- Interpolate to Timestep
  24,                                     !- Hour 1
  0,                                      !- Minute 1
  24.0000000000001;                       !- Value Until Time 1

OS:Schedule:Day,
  {9d199aae-f9bf-4997-9033-8603642d35c8}, !- Handle
  0800|1700|Bank|default|clg_setpoint Summer Design Day, !- Name
  {ba4f64bf-7f47-466e-ab95-7dc5a0eda87e}, !- Schedule Type Limits Name
  ,                                       !- Interpolate to Timestep
  24,                                     !- Hour 1
  0,                                      !- Minute 1
  24.0000000000001;                       !- Value Until Time 1

OS:Schedule:Day,
  {c625311c-f5ed-4ede-9ded-46c82e16af28}, !- Handle
  0800|1700|Bank|default|clg_setpoint Winter Design Day, !- Name
  {ba4f64bf-7f47-466e-ab95-7dc5a0eda87e}, !- Schedule Type Limits Name
  ,                                       !- Interpolate to Timestep
  24,                                     !- Hour 1
  0,                                      !- Minute 1
  24.0000000000001;                       !- Value Until Time 1

OS:Schedule:Rule,
  {0a81542a-253f-4eee-bba6-30fd55048a64}, !- Handle
  0800|1700|Bank|default|clg_setpoint |1/1-12/31|Sun Rule, !- Name
  {03ab139e-52a4-4ed8-afc4-10abf66a7cbd}, !- Schedule Ruleset Name
  0,                                      !- Rule Order
  {c87c8e41-cf79-4ea0-b397-dcb98d4d4bf1}, !- Day Schedule Name
  Yes,                                    !- Apply Sunday
  ,                                       !- Apply Monday
  ,                                       !- Apply Tuesday
  ,                                       !- Apply Wednesday
  ,                                       !- Apply Thursday
  ,                                       !- Apply Friday
  ,                                       !- Apply Saturday
  ,                                       !- Apply Holiday
  DateRange,                              !- Date Specification Type
  1,                                      !- Start Month
  1,                                      !- Start Day
  12,                                     !- End Month
  31;                                     !- End Day

OS:Schedule:Day,
  {c87c8e41-cf79-4ea0-b397-dcb98d4d4bf1}, !- Handle
  0800|1700|Bank|default|clg_setpoint |1/1-12/31|Sun, !- Name
  {ba4f64bf-7f47-466e-ab95-7dc5a0eda87e}, !- Schedule Type Limits Name
  ,                                       !- Interpolate to Timestep
  24,                                     !- Hour 1
  0,                                      !- Minute 1
  24.0000000000001;                       !- Value Until Time 1

OS:Schedule:Rule,
  {8834d7ad-ea12-4fed-b7cf-eb4f204af6a6}, !- Handle
  0800|1700|Bank|default|clg_setpoint |1/1-12/31|Sat Rule, !- Name
  {03ab139e-52a4-4ed8-afc4-10abf66a7cbd}, !- Schedule Ruleset Name
  1,                                      !- Rule Order
  {3ff0d6d5-b2bd-4524-a181-d64d4642fc14}, !- Day Schedule Name
  ,                                       !- Apply Sunday
  ,                                       !- Apply Monday
  ,                                       !- Apply Tuesday
  ,                                       !- Apply Wednesday
  ,                                       !- Apply Thursday
  ,                                       !- Apply Friday
  Yes,                                    !- Apply Saturday
  ,                                       !- Apply Holiday