
OS:Version,
  {748f134b-2f9f-4b9d-bf9f-458c7ed3f04d}, !- Handle
  1.5.5;                                  !- Version Identifier

OS:ClimateZones,
  {135edfab-17e7-40db-a436-27d385a8cd6d}, !- Handle
  ,                                       !- Active Institution
  ,                                       !- Active Year
  ASHRAE,                                 !- Climate Zone Institution Name 1
  ANSI/ASHRAE Standard 169,               !- Climate Zone Document Name 1
  2006,                                   !- Climate Zone Document Year 1
  ,                                       !- Climate Zone Value 1
  CEC,                                    !- Climate Zone Institution Name 2
  California Climate Zone Descriptions,   !- Climate Zone Document Name 2
  1995,                                   !- Climate Zone Document Year 2
  ;                                       !- Climate Zone Value 2

OS:YearDescription,
  {513d8dda-86cb-442a-b01c-1f7f0e0ac70e}; !- Handle

OS:RadianceParameters,
  {270a96f1-3c86-4b75-a667-cdf22790e2c8}, !- Handle
  1,                                      !- Accumulated Rays per Record
  0,                                      !- Direct Threshold
  1,                                      !- Direct Certainty
  1,                                      !- Direct Jitter
  1,                                      !- Direct Pretest
  6,                                      !- Ambient Bounces VMX
  2,                                      !- Ambient Bounces DMX
  4050,                                   !- Ambient Divisions VMX
  512,                                    !- Ambient Divisions DMX
  256,                                    !- Ambient Supersamples
  0.001,                                  !- Limit Weight VMX
  0.001,                                  !- Limit Weight DMX
  500,                                    !- Klems Sampling Density
  146;                                    !- Sky Discretization Resolution

OS:SimulationControl,
  {2c487a4c-bac9-4ac5-b669-1e49d9da7c2b}, !- Handle
  ,                                       !- Do Zone Sizing Calculation
  ,                                       !- Do System Sizing Calculation
  ,                                       !- Do Plant Sizing Calculation
  No,                                     !- Run Simulation for Sizing Periods
  ,                                       !- Run Simulation for Weather File Run Periods
  0.04,                                   !- Loads Convergence Tolerance Value
  ,                                       !- Temperature Convergence Tolerance Value {deltaC}
  ,                                       !- Solar Distribution
  ,                                       !- Maximum Number of Warmup Days
  2;                                      !- Minimum Number of Warmup Days

OS:Sizing:Parameters,
  {dde5af6f-7923-4600-a28a-7556673a0266}, !- Handle
  1.25,                                   !- Heating Sizing Factor
  1.15;                                   !- Cooling Sizing Factor

OS:ProgramControl,
  {05027a99-f2b3-4aeb-afc6-1425fbb4371d}; !- Handle

OS:Timestep,
  {4ebc9f1e-4707-402e-9844-67eb1ffbd522}, !- Handle
  2;                                      !- Number of Timesteps per Hour

OS:OutputControl:ReportingTolerances,
  {65797aa2-06a9-45fe-b69d-bc6e060399d3}; !- Handle

OS:ConvergenceLimits,
  {9fc11aba-8822-4f3d-970c-46391ba4040d}; !- Handle

OS:ShadowCalculation,
  {ca758bea-4416-4626-9bba-3d8795c79bd6}, !- Handle
  7,                                      !- Calculation Frequency
  15000;                                  !- Maximum Figures in Shadow Overlap Calculations

OS:SurfaceConvectionAlgorithm:Inside,
  {aaabfc36-718a-4ab0-b622-f186ebb45230}, !- Handle
  TARP;                                   !- Algorithm

OS:SurfaceConvectionAlgorithm:Outside,
  {9a0a9f6f-4bbd-4b12-a121-9492a1fcd7d6}, !- Handle
  DOE-2;                                  !- Algorithm

OS:HeatBalanceAlgorithm,
  {9d93e563-e1e0-46d7-9e39-d1c8aceb7212}, !- Handle
  ConductionTransferFunction,             !- Algorithm
  200;                                    !- Surface Temperature Upper Limit {F}

OS:ZoneAirHeatBalanceAlgorithm,
  {8520d93e-310f-4696-9bcd-36228bfdd743}, !- Handle
  AnalyticalSolution;                     !- Algorithm

OS:ZoneAirContaminantBalance,
  {eb5fc3ae-fb22-4160-8fcb-3e3b22b000d3}; !- Handle

OS:ZoneCapacitanceMultiplier:ResearchSpecial,
  {4020ce4f-5a7a-4849-8028-8305d7b751b1}, !- Handle
  ,                                       !- Temperature Capacity Multiplier
  ,                                       !- Humidity Capacity Multiplier
  ;                                       !- Carbon Dioxide Capacity Multiplier

OS:RunPeriod,
  {28df894d-6af9-4fb8-8f56-df1753344aa3}, !- Handle
  Run Period 1,                           !- Name
  1,                                      !- Begin Month
  1,                                      !- Begin Day of Month
  12,                                     !- End Month
  31,                                     !- End Day of Month
  ,                                       !- Use Weather File Holidays and Special Days
  ,                                       !- Use Weather File Daylight Saving Period
  ,                                       !- Apply Weekend Holiday Rule
  ,                                       !- Use Weather File Rain Indicators
  ,                                       !- Use Weather File Snow Indicators
  ;                                       !- Number of Times Runperiod to be Repeated

OS:Building,
  {bf305633-c5a1-4881-9edf-ca5e1a8e1274}, !- Handle
  Building 1,                             !- Name
  ,                                       !- Building Sector Type
  ,                                       !- North Axis {deg}
  ,                                       !- Nominal Floor to Floor Height {m}
  ,                                       !- Space Type Name
  ,                                       !- Default Construction Set Name
  {ce2353fc-4b90-4e5e-bead-e98ac77e6ce6}, !- Default Schedule Set Name
  ,                                       !- Standards Number of Stories
  ,                                       !- Standards Number of Above Ground Stories
  Bank;                                   !- Standards Building Type

OS:LifeCycleCost:Parameters,
  {231cf8a0-f0e7-4251-a99f-11f0d464e661}, !- Handle
  FEMP,                                   !- Analysis Type
  ,                                       !- Discounting Convention
  ,                                       !- Inflation Approach
  ,                                       !- Real Discount Rate
  ,                                       !- Nominal Discount Rate
  ,                                       !- Inflation
  ,                                       !- Base Date Month
  ,                                       !- Base Date Year
  ,                                       !- Service Date Month
  ,                                       !- Service Date Year
  ,                                       !- Length of Study Period in Years
  ,                                       !- Tax Rate
  ,                                       !- Depreciation Method
  Yes;                                    !- Use NIST Fuel Escalation Rates

OS:Facility,
  {3ba8e45b-b833-44eb-a723-ea6c3946dc96}; !- Handle

OS:SpaceType,
  {5a3a0030-59a1-4ec9-a471-4eff45ba398f}, !- Handle
  Bank|BlendFront|DOE Ref 2004|ASHRAE 169-2006-5A, !- Name
  {8c8baf90-8164-4bc5-9b12-ee7b100881a9}, !- Default Construction Set Name
  ,                                       !- Default Schedule Set Name
  {da2c6caf-4f6a-4ccf-852b-f8a160abbc66}, !- Group Rendering Name
  {09cbc964-6a5d-42f7-a399-8a83f48be784}, !- Design Specification Outdoor Air Object Name
  Bank,                                   !- Standards Building Type
  BlendFront;                             !- Standards Space Type

OS:Rendering:Color,
  {da2c6caf-4f6a-4ccf-852b-f8a160abbc66}, !- Handle
  Rendering Color 1,                      !- Name
  230,                                    !- Rendering Red Value
  157,                                    !- Rendering Green Value
  120;                                    !- Rendering Blue Value

OS:SpaceType,
  {3cda08bf-d2d9-4e80-b7aa-f5f045b45835}, !- Handle
  Bank|Elec/MechRoom|DOE Ref 2004|ASHRAE 169-2006-5A, !- Name
  {8c8baf90-8164-4bc5-9b12-ee7b100881a9}, !- Default Construction Set Name
  {e822b51e-25a8-4862-8462-69be33bd2b91}, !- Default Schedule Set Name
  {f03679b6-3c3e-4f25-8d8c-6aa4e5e22e4b}, !- Group Rendering Name
  {f45e52fc-ed98-40a0-a37c-1dcae5a23b0c}, !- Design Specification Outdoor Air Object Name
  Bank,                                   !- Standards Building Type
  Elec/MechRoom;                          !- Standards Space Type

OS:Rendering:Color,
  {f03679b6-3c3e-4f25-8d8c-6aa4e5e22e4b}, !- Handle
  Rendering Color 2,                      !- Name
  41,                                     !- Rendering Red Value
  31,                                     !- Rendering Green Value
  169;                                    !- Rendering Blue Value

OS:SpaceType,
  {9fa5d764-794a-4dee-a5c1-6462edee6c07}, !- Handle
  Bank|Restroom|DOE Ref 2004|ASHRAE 169-2006-5A, !- Name
  {8c8baf90-8164-4bc5-9b12-ee7b100881a9}, !- Default Construction Set Name
  {15e57f99-83b9-47fc-825a-8c917c7907da}, !- Default Schedule Set Name
  {240a2314-a781-4564-9726-834e4bdfa5e9}, !- Group Rendering Name
  {828786a2-9fa2-46fc-973e-2f8f4b370c2d}, !- Design Specification Outdoor Air Object Name
  Bank,                                   !- Standards Building Type
  Restroom;                               !- Standards Space Type

OS:Rendering:Color,
  {240a2314-a781-4564-9726-834e4bdfa5e9}, !- Handle
  Rendering Color 3,                      !- Name
  169,                                    !- Rendering Red Value
  169,                                    !- Rendering Green Value
  31;                                     !- Rendering Blue Value

OS:SpaceType,
  {6af1d0a3-287c-4d2d-96cb-ac6b08c08c3f}, !- Handle
  Bank|Vault|DOE Ref 2004|ASHRAE 169-2006-5A, !- Name
  {8c8baf90-8164-4bc5-9b12-ee7b100881a9}, !- Default Construction Set Name
  {42c6dfe1-710d-4a03-9e60-1ed90d39a661}, !- Default Schedule Set Name
  {ba5de3e1-583b-4699-b649-74d6a3b87b51}, !- Group Rendering Name
  {a054b5e6-b525-49b2-9f02-cd2786e178bc}, !- Design Specification Outdoor Air Object Name
  Bank,                                   !- Standards Building Type
  Vault;                                  !- Standards Space Type

OS:Rendering:Color,
  {ba5de3e1-583b-4699-b649-74d6a3b87b51}, !- Handle
  Rendering Color 4,                      !- Name
  120,                                    !- Rendering Red Value
  120,                                    !- Rendering Green Value
  120;                                    !- Rendering Blue Value

OS:Schedule:Ruleset,
  {21f1a6ea-4c58-482c-b378-c6fdc1101e36}, !- Handle
  0800|1700|Bank|default|hoo,             !- Name
  {791e4985-bd74-496c-8674-91d3f5167ca5}, !- Schedule Type Limits Name
  {02bf9d4e-0e9f-443d-9539-a9e799dd25d7}, !- Default Day Schedule Name
  {239aba51-a12a-42fe-a1b8-024ec9e28f1f}, !- Summer Design Day Schedule Name
  {e18413fc-3aa0-414c-8b59-1ed4316c4058}; !- Winter Design Day Schedule Name

OS:Schedule:Day,
  {02bf9d4e-0e9f-443d-9539-a9e799dd25d7}, !- Handle
  0800|1700|Bank|default|hoo Schedule Week Day, !- Name
  {791e4985-bd74-496c-8674-91d3f5167ca5}, !- Schedule Type Limits Name
  ,                                       !- Interpolate to Timestep
  8,                                      !- Hour 1
  0,                                      !- Minute 1
  0,                                      !- Value Until Time 1
  17,                                     !- Hour 2
  0,                                      !- Minute 2
  1,                                      !- Value Until Time 2
  24,                                     !- Hour 3
  0,                                      !- Minute 3
  0;                                      !- Value Until Time 3

OS:Schedule:Day,
  {fc74f418-a352-48dc-aebe-db2e834cf4a7}, !- Handle
  Schedule Day 2,                         !- Name
  ,                                       !- Schedule Type Limits Name
  ,                                       !- Interpolate to Timestep
  24,                                     !- Hour 1
  0,                                      !- Minute 1
  0;                                      !- Value Until Time 1

OS:Schedule:Day,
  {e18413fc-3aa0-414c-8b59-1ed4316c4058}, !- Handle
  0800|1700|Bank|default|hoo Winter Design Day, !- Name
  {791e4985-bd74-496c-8674-91d3f5167ca5}, !- Schedule Type Limits Name
  ,                                       !- Interpolate to Timestep
  24,                                     !- Hour 1
  0,                                      !- Minute 1
  0;                                      !- Value Until Time 1

OS:Schedule:Day,
  {462171a2-b7d1-4dc5-bb51-81d2d70360a3}, !- Handle
  Schedule Day 3,                         !- Name
  ,                                       !- Schedule Type Limits Name
  ,                                       !- Interpolate to Timestep
  24,                                     !- Hour 1
  0,                                      !- Minute 1
  0;                                      !- Value Until Time 1

OS:Schedule:Day,
  {239aba51-a12a-42fe-a1b8-024ec9e28f1f}, !- Handle
  0800|1700|Bank|default|hoo Summer Design Day, !- Name
  {791e4985-bd74-496c-8674-91d3f5167ca5}, !- Schedule Type Limits Name
  ,                                       !- Interpolate to Timestep
  24,                                     !- Hour 1
  0,                                      !- Minute 1
  1;                                      !- Value Until Time 1

OS:DefaultScheduleSet,
  {ce2353fc-4b90-4e5e-bead-e98ac77e6ce6}, !- Handle
  Building Hours of Operation,            !- Name
  {21f1a6ea-4c58-482c-b378-c6fdc1101e36}, !- Hours of Operation Schedule Name
  ,                                       !- Number of People Schedule Name
  ,                                       !- People Activity Level Schedule Name
  ,                                       !- Lighting Schedule Name
  ,                                       !- Electric Equipment Schedule Name
  ,                                       !- Gas Equipment Schedule Name
  ,                                       !- Hot Water Equipment Schedule Name
  ,                                       !- Infiltration Schedule Name
  ,                                       !- Steam Equipment Schedule Name
  ;                                       !- Other Equipment Schedule Name

OS:ScheduleTypeLimits,
  {791e4985-bd74-496c-8674-91d3f5167ca5}, !- Handle
  OnOff,                                  !- Name
  0,                                      !- Lower Limit Value {BasedOnField A4}
  1,                                      !- Upper Limit Value {BasedOnField A4}
  Discrete,                               !- Numeric Type
  Availability;                           !- Unit Type

OS:Schedule:Ruleset,
  {2330de8e-1e45-4825-a428-4c9ab25b7d50}, !- Handle
  0800|1700|Bank|default|rh,              !- Name
  {79cee336-99e2-47b8-8919-8b5a718d945e}, !- Schedule Type Limits Name
  {b56c0f73-d734-4588-b14e-c622478e41cc}, !- Default Day Schedule Name
  {b753e1b1-bec1-4cb8-bf7c-f54fad457c77}, !- Summer Design Day Schedule Name
  {19bb98fe-ad1d-401c-ba6d-128481c320b1}; !- Winter Design Day Schedule Name

OS:ScheduleTypeLimits,
  {79cee336-99e2-47b8-8919-8b5a718d945e}, !- Handle
  Dimensionless Schedule Type Limits,     !- Name
  ,                                       !- Lower Limit Value {BasedOnField A4}
  ,                                       !- Upper Limit Value {BasedOnField A4}
  Continuous,                             !- Numeric Type
  Dimensionless;                          !- Unit Type

OS:Schedule:Day,
  {b56c0f73-d734-4588-b14e-c622478e41cc}, !- Handle
  0800|1700|Bank|default|rh |default,     !- Name
  {79cee336-99e2-47b8-8919-8b5a718d945e}, !- Schedule Type Limits Name
  ,                                       !- Interpolate to Timestep
  24,                                     !- Hour 1
  0,                                      !- Minute 1
  50;                                     !- Value Until Time 1

OS:Schedule:Day,
  {b753e1b1-bec1-4cb8-bf7c-f54fad457c77}, !- Handle
  0800|1700|Bank|default|rh Summer Design Day, !- Name
  {79cee336-99e2-47b8-8919-8b5a718d945e}, !- Schedule Type Limits Name
  ,                                       !- Interpolate to Timestep
  24,                                     !- Hour 1
  0,                                      !- Minute 1
  50;                                     !- Value Until Time 1

OS:Schedule:Day,
  {19bb98fe-ad1d-401c-ba6d-128481c320b1}, !- Handle
  0800|1700|Bank|default|rh Winter Design Day, !- Name
  {79cee336-99e2-47b8-8919-8b5a718d945e}, !- Schedule Type Limits Name
  ,                                       !- Interpolate to Timestep
  24,                                     !- Hour 1
  0,                                      !- Minute 1
  50;                                     !- Value Until Time 1

OS:Schedule:Ruleset,
  {8f732ecc-24a2-43ed-aadc-a1edeb9eef8c}, !- Handle
  0800|1700|Bank|default|thermal_ctrl,    !- Name
  {79cee336-99e2-47b8-8919-8b5a718d945e}, !- Schedule Type Limits Name
  {636a1b30-5bfd-4993-9f66-68e74453adbe}, !- Default Day Schedule Name
  {6c1a3459-cbb3-40f8-bc1e-7dfdcf7ca6a4}, !- Summer Design Day Schedule Name
  {c3ee7cec-d2b9-4ba6-8f35-0e600b8a69f6}; !- Winter Design Day Schedule Name

OS:Schedule:Day,
  {636a1b30-5bfd-4993-9f66-68e74453adbe}, !- Handle
  0800|1700|Bank|default|thermal_ctrl |default, !- Name
  {79cee336-99e2-47b8-8919-8b5a718d945e}, !- Schedule Type Limits Name
  ,                                       !- Interpolate to Timestep
  24,                                     !- Hour 1
  0,                                      !- Minute 1
  4;                                      !- Value Until Time 1

OS:Schedule:Day,
  {6c1a3459-cbb3-40f8-bc1e-7dfdcf7ca6a4}, !- Handle
  0800|1700|Bank|default|thermal_ctrl Summer Design Day, !- Name
  {79cee336-99e2-47b8-8919-8b5a718d945e}, !- Schedule Type Limits Name
  ,                                       !- Interpolate to Timestep
  24,                                     !- Hour 1
  0,                                      !- Minute 1
  4;                                      !- Value Until Time 1

OS:Schedule:Day,
  {c3ee7cec-d2b9-4ba6-8f35-0e600b8a69f6}, !- Handle
  0800|1700|Bank|default|thermal_ctrl Winter Design Day, !- Name
  {79cee336-99e2-47b8-8919-8b5a718d945e}, !- Schedule Type Limits Name
  ,                                       !- Interpolate to Timestep
  24,                                     !- Hour 1
  0,                                      !- Minute 1
  4;                                      !- Value Until Time 1

OS:Schedule:Ruleset,
  {2054a614-f7c8-4629-a476-3e6c7c17374d}, !- Handle
  0800|1700|Bank|default|hvac,            !- Name
  {4d407dc7-02b0-42a2-bf9e-3708a03829cf}, !- Schedule Type Limits Name
  {95d27122-da2c-4a6f-ab50-c5ca1d82cf0f}, !- Default Day Schedule Name
  {89c05d8d-ff23-47a5-af36-83450816b481}, !- Summer Design Day Schedule Name
  {a99166b6-e47b-4263-b63a-66a3fe7e5bdb}; !- Winter Design Day Schedule Name

OS:ScheduleTypeLimits,
  {4d407dc7-02b0-42a2-bf9e-3708a03829cf}, !- Handle
  HVAC Operation Schedule Type Limits,    !- Name
  0,                                      !- Lower Limit Value {BasedOnField A4}
  1,                                      !- Upper Limit Value {BasedOnField A4}
  Discrete,                               !- Numeric Type
  Availability;                           !- Unit Type

OS:Schedule:Day,
  {95d27122-da2c-4a6f-ab50-c5ca1d82cf0f}, !- Handle
  0800|1700|Bank|default|hvac |default,   !- Name
  {4d407dc7-02b0-42a2-bf9e-3708a03829cf}, !- Schedule Type Limits Name
  ,                                       !- Interpolate to Timestep
  6,                                      !- Hour 1
  0,                                      !- Minute 1
  0,                                      !- Value Until Time 1
  22,                                     !- Hour 2
  0,                                      !- Minute 2
  1,                                      !- Value Until Time 2
  24,                                     !- Hour 3
  0,                                      !- Minute 3
  0;                                      !- Value Until Time 3

OS:Schedule:Day,
  {89c05d8d-ff23-47a5-af36-83450816b481}, !- Handle
  0800|1700|Bank|default|hvac Summer Design Day, !- Name
  {4d407dc7-02b0-42a2-bf9e-3708a03829cf}, !- Schedule Type Limits Name
  ,                                       !- Interpolate to Timestep
  6,                                      !- Hour 1
  0,                                      !- Minute 1
  0,                                      !- Value Until Time 1
  22,                                     !- Hour 2
  0,                                      !- Minute 2
  1,                                      !- Value Until Time 2
  24,                                     !- Hour 3
  0,                                      !- Minute 3
  0;                                      !- Value Until Time 3

OS:Schedule:Day,
  {a99166b6-e47b-4263-b63a-66a3fe7e5bdb}, !- Handle
  0800|1700|Bank|default|hvac Winter Design Day, !- Name
  {4d407dc7-02b0-42a2-bf9e-3708a03829cf}, !- Schedule Type Limits Name
  ,                                       !- Interpolate to Timestep
  6,                                      !- Hour 1
  0,                                      !- Minute 1
  0,                                      !- Value Until Time 1
  22,                                     !- Hour 2
  0,                                      !- Minute 2
  1,                                      !- Value Until Time 2
  24,                                     !- Hour 3
  0,                                      !- Minute 3
  0;                                      !- Value Until Time 3

OS:Schedule:Rule,
  {48c29d39-e002-41b6-91a8-45c80f452e43}, !- Handle
  0800|1700|Bank|default|hvac |1/1-12/31|Sun Rule, !- Name
  {2054a614-f7c8-4629-a476-3e6c7c17374d}, !- Schedule Ruleset Name
  0,                                      !- Rule Order
  {4bbb90b6-7808-456f-b9e6-b30d167c19de}, !- Day Schedule Name
  Yes,                                    !- Apply Sunday
  ,                                       !- Apply Monday
  ,                                       !- Apply Tuesday
  ,                                       !- Apply Wednesday
  ,                                       !- Apply Thursday
  ,                                       !- Apply Friday
  ,                                       !- Apply Saturday
  ,                                       !- Apply Holiday
  DateRange,                              !- Date Specification Type
  1,                                      !- Start Month
  1,                                      !- Start Day
  12,                                     !- End Month
  31;                                     !- End Day

OS:Schedule:Day,
  {4bbb90b6-7808-456f-b9e6-b30d167c19de}, !- Handle
  0800|1700|Bank|default|hvac |1/1-12/31|Sun, !- Name
  {4d407dc7-02b0-42a2-bf9e-3708a03829cf}, !- Schedule Type Limits Name
  ,                                       !- Interpolate to Timestep
  24,                                     !- Hour 1
  0,                                      !- Minute 1
  0;                                      !- Value Until Time 1

OS:Schedule:Rule,
  {835a2784-ca1e-4143-9275-c4235dd94663}, !- Handle
  0800|1700|Bank|default|hvac |1/1-12/31|Sat Rule, !- Name
  {2054a614-f7c8-4629-a476-3e6c7c17374d}, !- Schedule Ruleset Name
  1,                                      !- Rule Order
  {2495f572-1ce6-4f0c-bd96-bd3432a84471}, !- Day Schedule Name
  ,                                       !- Apply Sunday
  ,                                       !- Apply Monday
  ,                                       !- Apply Tuesday
  ,                                       !- Apply Wednesday
  ,                                       !- Apply Thursday
  ,                                       !- Apply Friday
  Yes,                                    !- Apply Saturday
  ,                                       !- Apply Holiday
  DateRange,                              !- Date Specification Type
  1,                                      !- Start Month
  1,                                      !- Start Day
  12,                                     !- End Month
  31;                                     !- End Day

OS:Schedule:Day,
  {2495f572-1ce6-4f0c-bd96-bd3432a84471}, !- Handle
  0800|1700|Bank|default|hvac |1/1-12/31|Sat, !- Name
  {4d407dc7-02b0-42a2-bf9e-3708a03829cf}, !- Schedule Type Limits Name
  ,                                       !- Interpolate to Timestep
  6,                                      !- Hour 1
  0,                                      !- Minute 1
  0,                                      !- Value Until Time 1
  18,                                     !- Hour 2
  0,                                      !- Minute 2
  1,                                      !- Value Until Time 2
  24,                                     !- Hour 3
  0,                                      !- Minute 3
  0;                                      !- Value Until Time 3

OS:Schedule:Ruleset,
  {f14aa73e-e040-40dc-8d56-d3d56a4f1d24}, !- Handle
  0800|1700|Bank|default|clg_setpoint,    !- Name
  {800f2fd7-83ee-4fa6-9c84-c0d784bce9ce}, !- Schedule Type Limits Name
  {ac8658cb-76ca-40ea-b2c3-7a68b1624e12}, !- Default Day Schedule Name
  {a43655f2-aeb5-4d59-a762-bfef3261bde9}, !- Summer Design Day Schedule Name
  {4d60c831-e927-4313-a119-f3e886945b0c}; !- Winter Design Day Schedule Name

OS:ScheduleTypeLimits,
  {800f2fd7-83ee-4fa6-9c84-c0d784bce9ce}, !- Handle
  Thermostat Cooling Setpoint Schedule Type Limits, !- Name
  0,                                      !- Lower Limit Value {BasedOnField A4}
  100,                                    !- Upper Limit Value {BasedOnField A4}
  Continuous,                             !- Numeric Type
  Temperature;                            !- Unit Type

OS:Schedule:Day,
  {ac8658cb-76ca-40ea-b2c3-7a68b1624e12}, !- Handle
  0800|1700|Bank|default|clg_setpoint |default, !- Name
  {800f2fd7-83ee-4fa6-9c84-c0d784bce9ce}, !- Schedule Type Limits Name
  ,                                       !- Interpolate to Timestep
  24,                                     !- Hour 1
  0,                                      !- Minute 1
  24.0000000000001;                       !- Value Until Time 1

OS:Schedule:Day,
  {a43655f2-aeb5-4d59-a762-bfef3261bde9}, !- Handle
  0800|1700|Bank|default|clg_setpoint Summer Design Day, !- Name
  {800f2fd7-83ee-4fa6-9c84-c0d784bce9ce}, !- Schedule Type Limits Name
  ,                                       !- Interpolate to Timestep
  24,                                     !- Hour 1
  0,                                      !- Minute 1
  24.0000000000001;                       !- Value Until Time 1

OS:Schedule:Day,
  {4d60c831-e927-4313-a119-f3e886945b0c}, !- Handle
  0800|1700|Bank|default|clg_setpoint Winter Design Day, !- Name
  {800f2fd7-83ee-4fa6-9c84-c0d784bce9ce}, !- Schedule Type Limits Name
  ,                                       !- Interpolate to Timestep
  24,                                     !- Hour 1
  0,                                      !- Minute 1
  24.0000000000001;                       !- Value Until Time 1

OS:Schedule:Rule,
  {f62eda3a-2984-41a5-944a-c44842ee5f45}, !- Handle
  0800|1700|Bank|default|clg_setpoint |1/1-12/31|Sun Rule, !- Name
  {f14aa73e-e040-40dc-8d56-d3d56a4f1d24}, !- Schedule Ruleset Name
  0,                                      !- Rule Order
  {eec8850d-7e70-40e6-9116-cdedb24e3f05}, !- Day Schedule Name
  Yes,                                    !- Apply Sunday
  ,                                       !- Apply Monday
  ,                                       !- Apply Tuesday
  ,                                       !- Apply Wednesday
  ,                                       !- Apply Thursday
  ,                                       !- Apply Friday
  ,                                       !- Apply Saturday
  ,                                       !- Apply Holiday
  DateRange,                              !- Date Specification Type
  1,                                      !- Start Month
  1,                                      !- Start Day
  12,                                     !- End Month
  31;                                     !- End Day

OS:Schedule:Day,
  {eec8850d-7e70-40e6-9116-cdedb24e3f05}, !- Handle
  0800|1700|Bank|default|clg_setpoint |1/1-12/31|Sun, !- Name
  {800f2fd7-83ee-4fa6-9c84-c0d784bce9ce}, !- Schedule Type Limits Name
  ,                                       !- Interpolate to Timestep
  24,                                     !- Hour 1
  0,                                      !- Minute 1
  24.0000000000001;                       !- Value Until Time 1

OS:Schedule:Rule,
  {8850c84a-3d9d-4807-9770-510c12783ee0}, !- Handle
  0800|1700|Bank|default|clg_setpoint |1/1-12/31|Sat Rule, !- Name
  {f14aa73e-e040-40dc-8d56-d3d56a4f1d24}, !- Schedule Ruleset Name
  1,                                      !- Rule Order
  {9c409980-1e01-455b-9522-8e6eb629d5ce}, !- Day Schedule Name
  ,                                       !- Apply Sunday
  ,                                       !- Apply Monday
  ,                                       !- Apply Tuesday
  ,                                       !- Apply Wednesday
  ,                                       !- Apply Thursday
  ,                                       !- Apply Friday
  Yes,                                    !- Apply Saturday
  ,                                       !- Apply Holiday