
OS:Version,
  {e2b7ff0a-bca4-4f3c-9e7d-56ad23083473}, !- Handle
  1.6.0;                                  !- Version Identifier

OS:ClimateZones,
  {135edfab-17e7-40db-a436-27d385a8cd6d}, !- Handle
  ,                                       !- Active Institution
  ,                                       !- Active Year
  ASHRAE,                                 !- Climate Zone Institution Name 1
  ANSI/ASHRAE Standard 169,               !- Climate Zone Document Name 1
  2006,                                   !- Climate Zone Document Year 1
  ,                                       !- Climate Zone Value 1
  CEC,                                    !- Climate Zone Institution Name 2
  California Climate Zone Descriptions,   !- Climate Zone Document Name 2
  1995,                                   !- Climate Zone Document Year 2
  ;                                       !- Climate Zone Value 2

OS:YearDescription,
  {513d8dda-86cb-442a-b01c-1f7f0e0ac70e}; !- Handle

OS:RadianceParameters,
  {270a96f1-3c86-4b75-a667-cdf22790e2c8}, !- Handle
  1,                                      !- Accumulated Rays per Record
  0,                                      !- Direct Threshold
  1,                                      !- Direct Certainty
  1,                                      !- Direct Jitter
  1,                                      !- Direct Pretest
  6,                                      !- Ambient Bounces VMX
  2,                                      !- Ambient Bounces DMX
  4050,                                   !- Ambient Divisions VMX
  512,                                    !- Ambient Divisions DMX
  256,                                    !- Ambient Supersamples
  0.001,                                  !- Limit Weight VMX
  0.001,                                  !- Limit Weight DMX
  500,                                    !- Klems Sampling Density
  146;                                    !- Sky Discretization Resolution

OS:SimulationControl,
  {2c487a4c-bac9-4ac5-b669-1e49d9da7c2b}, !- Handle
  ,                                       !- Do Zone Sizing Calculation
  ,                                       !- Do System Sizing Calculation
  ,                                       !- Do Plant Sizing Calculation
  No,                                     !- Run Simulation for Sizing Periods
  ,                                       !- Run Simulation for Weather File Run Periods
  0.04,                                   !- Loads Convergence Tolerance Value
  ,                                       !- Temperature Convergence Tolerance Value {deltaC}
  ,                                       !- Solar Distribution
  ,                                       !- Maximum Number of Warmup Days
  2;                                      !- Minimum Number of Warmup Days

OS:Sizing:Parameters,
  {dde5af6f-7923-4600-a28a-7556673a0266}, !- Handle
  1.25,                                   !- Heating Sizing Factor
  1.15;                                   !- Cooling Sizing Factor

OS:ProgramControl,
  {05027a99-f2b3-4aeb-afc6-1425fbb4371d}; !- Handle

OS:Timestep,
  {4ebc9f1e-4707-402e-9844-67eb1ffbd522}, !- Handle
  2;                                      !- Number of Timesteps per Hour

OS:OutputControl:ReportingTolerances,
  {65797aa2-06a9-45fe-b69d-bc6e060399d3}; !- Handle

OS:ConvergenceLimits,
  {9fc11aba-8822-4f3d-970c-46391ba4040d}; !- Handle

OS:ShadowCalculation,
  {ca758bea-4416-4626-9bba-3d8795c79bd6}, !- Handle
  7,                                      !- Calculation Frequency
  15000;                                  !- Maximum Figures in Shadow Overlap Calculations

OS:SurfaceConvectionAlgorithm:Inside,
  {aaabfc36-718a-4ab0-b622-f186ebb45230}, !- Handle
  TARP;                                   !- Algorithm

OS:SurfaceConvectionAlgorithm:Outside,
  {9a0a9f6f-4bbd-4b12-a121-9492a1fcd7d6}, !- Handle
  DOE-2;                                  !- Algorithm

OS:HeatBalanceAlgorithm,
  {9d93e563-e1e0-46d7-9e39-d1c8aceb7212}, !- Handle
  ConductionTransferFunction,             !- Algorithm
  200;                                    !- Surface Temperature Upper Limit {F}

OS:ZoneAirHeatBalanceAlgorithm,
  {8520d93e-310f-4696-9bcd-36228bfdd743}, !- Handle
  AnalyticalSolution;                     !- Algorithm

OS:ZoneAirContaminantBalance,
  {eb5fc3ae-fb22-4160-8fcb-3e3b22b000d3}; !- Handle

OS:ZoneCapacitanceMultiplier:ResearchSpecial,
  {4020ce4f-5a7a-4849-8028-8305d7b751b1}, !- Handle
  ,                                       !- Temperature Capacity Multiplier
  ,                                       !- Humidity Capacity Multiplier
  ;                                       !- Carbon Dioxide Capacity Multiplier

OS:RunPeriod,
  {28df894d-6af9-4fb8-8f56-df1753344aa3}, !- Handle
  Run Period 1,                           !- Name
  1,                                      !- Begin Month
  1,                                      !- Begin Day of Month
  12,                                     !- End Month
  31,                                     !- End Day of Month
  ,                                       !- Use Weather File Holidays and Special Days
  ,                                       !- Use Weather File Daylight Saving Period
  ,                                       !- Apply Weekend Holiday Rule
  ,                                       !- Use Weather File Rain Indicators
  ,                                       !- Use Weather File Snow Indicators
  ;                                       !- Number of Times Runperiod to be Repeated

OS:Building,
  {bf305633-c5a1-4881-9edf-ca5e1a8e1274}, !- Handle
  Building 1,                             !- Name
  ,                                       !- Building Sector Type
  ,                                       !- North Axis {deg}
  ,                                       !- Nominal Floor to Floor Height {m}
  ,                                       !- Space Type Name
  ,                                       !- Default Construction Set Name
  {0ee1387f-e40b-4c01-acfd-6f24aa1dbbc8}, !- Default Schedule Set Name
  ,                                       !- Standards Number of Stories
  ,                                       !- Standards Number of Above Ground Stories
  Bank;                                   !- Standards Building Type

OS:LifeCycleCost:Parameters,
  {231cf8a0-f0e7-4251-a99f-11f0d464e661}, !- Handle
  FEMP,                                   !- Analysis Type
  ,                                       !- Discounting Convention
  ,                                       !- Inflation Approach
  ,                                       !- Real Discount Rate
  ,                                       !- Nominal Discount Rate
  ,                                       !- Inflation
  ,                                       !- Base Date Month
  ,                                       !- Base Date Year
  ,                                       !- Service Date Month
  ,                                       !- Service Date Year
  ,                                       !- Length of Study Period in Years
  ,                                       !- Tax Rate
  ,                                       !- Depreciation Method
  Yes;                                    !- Use NIST Fuel Escalation Rates

OS:Facility,
  {3ba8e45b-b833-44eb-a723-ea6c3946dc96}; !- Handle

OS:SpaceType,
  {180e7127-62e9-473d-8392-a1f5c855844f}, !- Handle
  Bank|BlendFront|DOE Ref 2004|ASHRAE 169-2006-5A, !- Name
  {9ed11884-e8a2-475b-9b4a-ea0dd329a592}, !- Default Construction Set Name
  ,                                       !- Default Schedule Set Name
  {60e236a1-a854-47b3-bcc8-92a576a9c368}, !- Group Rendering Name
  {c27c2645-4ad1-4027-b930-711d7991a307}, !- Design Specification Outdoor Air Object Name
  Bank,                                   !- Standards Building Type
  BlendFront;                             !- Standards Space Type

OS:Rendering:Color,
  {60e236a1-a854-47b3-bcc8-92a576a9c368}, !- Handle
  Rendering Color 1,                      !- Name
  230,                                    !- Rendering Red Value
  157,                                    !- Rendering Green Value
  120;                                    !- Rendering Blue Value

OS:SpaceType,
  {faa84751-29c0-4f07-b3d2-870f15c586f7}, !- Handle
  Bank|ElecMechRoom|DOE Ref 2004|ASHRAE 169-2006-5A, !- Name
  {9ed11884-e8a2-475b-9b4a-ea0dd329a592}, !- Default Construction Set Name
  {8be796de-fd87-4c35-9067-4e618c8eee59}, !- Default Schedule Set Name
  {252d3dde-e5c5-40c3-ac13-f885300022a6}, !- Group Rendering Name
  {85e3fea1-15ba-4d0a-8e34-887d47ff3f5b}, !- Design Specification Outdoor Air Object Name
  Bank,                                   !- Standards Building Type
  ElecMechRoom;                           !- Standards Space Type

OS:Rendering:Color,
  {252d3dde-e5c5-40c3-ac13-f885300022a6}, !- Handle
  Rendering Color 2,                      !- Name
  41,                                     !- Rendering Red Value
  31,                                     !- Rendering Green Value
  169;                                    !- Rendering Blue Value

OS:SpaceType,
  {b57df2da-df3b-4866-87da-ff24a7e97504}, !- Handle
  Bank|Restroom|DOE Ref 2004|ASHRAE 169-2006-5A, !- Name
  {9ed11884-e8a2-475b-9b4a-ea0dd329a592}, !- Default Construction Set Name
  {95e3d421-b1df-4b38-8287-3fbbf44f9fd7}, !- Default Schedule Set Name
  {367c23de-f2b4-49ba-bf3b-5f9de3fa9a23}, !- Group Rendering Name
  {6dea39c8-3175-4f62-b28e-d98d4a3dfac5}, !- Design Specification Outdoor Air Object Name
  Bank,                                   !- Standards Building Type
  Restroom;                               !- Standards Space Type

OS:Rendering:Color,
  {367c23de-f2b4-49ba-bf3b-5f9de3fa9a23}, !- Handle
  Rendering Color 3,                      !- Name
  169,                                    !- Rendering Red Value
  169,                                    !- Rendering Green Value
  31;                                     !- Rendering Blue Value

OS:SpaceType,
  {8af989aa-4e3b-4587-bed8-c045d435564e}, !- Handle
  Bank|Vault|DOE Ref 2004|ASHRAE 169-2006-5A, !- Name
  {9ed11884-e8a2-475b-9b4a-ea0dd329a592}, !- Default Construction Set Name
  {6b9f0141-e1a9-4cf9-a86a-ef2971d0bc35}, !- Default Schedule Set Name
  {e5d50219-5e9c-4c9a-a631-70ff326386ca}, !- Group Rendering Name
  {d9c75567-803a-4673-b8c9-960ef3af21f1}, !- Design Specification Outdoor Air Object Name
  Bank,                                   !- Standards Building Type
  Vault;                                  !- Standards Space Type

OS:Rendering:Color,
  {e5d50219-5e9c-4c9a-a631-70ff326386ca}, !- Handle
  Rendering Color 4,                      !- Name
  120,                                    !- Rendering Red Value
  120,                                    !- Rendering Green Value
  120;                                    !- Rendering Blue Value

OS:Schedule:Ruleset,
  {73a7b78a-074f-4c7e-8e9c-2c73e2794ab4}, !- Handle
  0800|1700|Bank|default|hoo,             !- Name
  {b3003ea3-f2d8-40b6-814f-f03046fdaa44}, !- Schedule Type Limits Name
  {8d0823ef-fd7b-4d43-91b4-61e41ccae710}, !- Default Day Schedule Name
  {3d0750ae-ffeb-4c0b-82b1-356734d479d6}, !- Summer Design Day Schedule Name
  {7b52bf85-e45d-42c5-890a-a5cce7e61506}; !- Winter Design Day Schedule Name

OS:Schedule:Day,
  {8d0823ef-fd7b-4d43-91b4-61e41ccae710}, !- Handle
  0800|1700|Bank|default|hoo Schedule Week Day, !- Name
  {b3003ea3-f2d8-40b6-814f-f03046fdaa44}, !- Schedule Type Limits Name
  ,                                       !- Interpolate to Timestep
  8,                                      !- Hour 1
  0,                                      !- Minute 1
  0,                                      !- Value Until Time 1
  17,                                     !- Hour 2
  0,                                      !- Minute 2
  1,                                      !- Value Until Time 2
  24,                                     !- Hour 3
  0,                                      !- Minute 3
  0;                                      !- Value Until Time 3

OS:Schedule:Day,
  {e2f85c59-cab4-4e15-b232-a60f67e09109}, !- Handle
  Schedule Day 2,                         !- Name
  ,                                       !- Schedule Type Limits Name
  ,                                       !- Interpolate to Timestep
  24,                                     !- Hour 1
  0,                                      !- Minute 1
  0;                                      !- Value Until Time 1

OS:Schedule:Day,
  {7b52bf85-e45d-42c5-890a-a5cce7e61506}, !- Handle
  0800|1700|Bank|default|hoo Winter Design Day, !- Name
  {b3003ea3-f2d8-40b6-814f-f03046fdaa44}, !- Schedule Type Limits Name
  ,                                       !- Interpolate to Timestep
  24,                                     !- Hour 1
  0,                                      !- Minute 1
  0;                                      !- Value Until Time 1

OS:Schedule:Day,
  {6ee5e343-471f-4584-8404-e4a43a97664e}, !- Handle
  Schedule Day 3,                         !- Name
  ,                                       !- Schedule Type Limits Name
  ,                                       !- Interpolate to Timestep
  24,                                     !- Hour 1
  0,                                      !- Minute 1
  0;                                      !- Value Until Time 1

OS:Schedule:Day,
  {3d0750ae-ffeb-4c0b-82b1-356734d479d6}, !- Handle
  0800|1700|Bank|default|hoo Summer Design Day, !- Name
  {b3003ea3-f2d8-40b6-814f-f03046fdaa44}, !- Schedule Type Limits Name
  ,                                       !- Interpolate to Timestep
  24,                                     !- Hour 1
  0,                                      !- Minute 1
  1;                                      !- Value Until Time 1

OS:DefaultScheduleSet,
  {0ee1387f-e40b-4c01-acfd-6f24aa1dbbc8}, !- Handle
  Building Hours of Operation,            !- Name
  {73a7b78a-074f-4c7e-8e9c-2c73e2794ab4}, !- Hours of Operation Schedule Name
  ,                                       !- Number of People Schedule Name
  ,                                       !- People Activity Level Schedule Name
  ,                                       !- Lighting Schedule Name
  ,                                       !- Electric Equipment Schedule Name
  ,                                       !- Gas Equipment Schedule Name
  ,                                       !- Hot Water Equipment Schedule Name
  ,                                       !- Infiltration Schedule Name
  ,                                       !- Steam Equipment Schedule Name
  ;                                       !- Other Equipment Schedule Name

OS:ScheduleTypeLimits,
  {b3003ea3-f2d8-40b6-814f-f03046fdaa44}, !- Handle
  OnOff,                                  !- Name
  0,                                      !- Lower Limit Value {BasedOnField A4}
  1,                                      !- Upper Limit Value {BasedOnField A4}
  Discrete,                               !- Numeric Type
  Availability;                           !- Unit Type

OS:Schedule:Ruleset,
  {89100d25-1d3c-4813-a9d5-f0869c88e09c}, !- Handle
  0800|1700|Bank|default|activity,        !- Name
  {c50e6e19-47e6-4cf4-8c7f-a14f75157424}, !- Schedule Type Limits Name
  {f6c63314-9e07-4d8e-938b-5c14ac2f61f2}, !- Default Day Schedule Name
  {e30b8c7d-5937-4765-af92-aac62554651e}, !- Summer Design Day Schedule Name
  {ebabe630-b9ed-42a1-95d5-29dc6d34b6d7}; !- Winter Design Day Schedule Name

OS:ScheduleTypeLimits,
  {c50e6e19-47e6-4cf4-8c7f-a14f75157424}, !- Handle
  People Activity Type Limits,            !- Name
  0,                                      !- Lower Limit Value {BasedOnField A4}
  ,                                       !- Upper Limit Value {BasedOnField A4}
  Continuous,                             !- Numeric Type
  ActivityLevel;                          !- Unit Type

OS:Schedule:Day,
  {f6c63314-9e07-4d8e-938b-5c14ac2f61f2}, !- Handle
  0800|1700|Bank|default|activity |default, !- Name
  {c50e6e19-47e6-4cf4-8c7f-a14f75157424}, !- Schedule Type Limits Name
  ,                                       !- Interpolate to Timestep
  24,                                     !- Hour 1
  0,                                      !- Minute 1
  120;                                    !- Value Until Time 1

OS:Schedule:Day,
  {e30b8c7d-5937-4765-af92-aac62554651e}, !- Handle
  0800|1700|Bank|default|activity Summer Design Day, !- Name
  {c50e6e19-47e6-4cf4-8c7f-a14f75157424}, !- Schedule Type Limits Name
  ,                                       !- Interpolate to Timestep
  24,                                     !- Hour 1
  0,                                      !- Minute 1
  120;                                    !- Value Until Time 1

OS:Schedule:Day,
  {ebabe630-b9ed-42a1-95d5-29dc6d34b6d7}, !- Handle
  0800|1700|Bank|default|activity Winter Design Day, !- Name
  {c50e6e19-47e6-4cf4-8c7f-a14f75157424}, !- Schedule Type Limits Name
  ,                                       !- Interpolate to Timestep
  24,                                     !- Hour 1
  0,                                      !- Minute 1
  120;                                    !- Value Until Time 1

OS:Schedule:Ruleset,
  {3f189063-7ba7-49bd-b031-914ed6a71759}, !- Handle
  0800|1700|Bank|default|elec_equip,      !- Name
  {da04a28b-daa7-4292-aff4-96e4c0221eb2}, !- Schedule Type Limits Name
  {a7baaa77-fd32-444a-bfbc-ea6c3f9008ca}, !- Default Day Schedule Name
  {ce64d830-0d5a-472b-b53f-61eb1d54b6c1}, !- Summer Design Day Schedule Name
  {a04ceb2d-8734-4649-aac5-9495b82aa925}; !- Winter Design Day Schedule Name

OS:ScheduleTypeLimits,
  {da04a28b-daa7-4292-aff4-96e4c0221eb2}, !- Handle
  Equipment Schedule Type Limits,         !- Name
  0,                                      !- Lower Limit Value {BasedOnField A4}
  1,                                      !- Upper Limit Value {BasedOnField A4}
  Continuous,                             !- Numeric Type
  Dimensionless;                          !- Unit Type

OS:Schedule:Day,
  {a7baaa77-fd32-444a-bfbc-ea6c3f9008ca}, !- Handle
  0800|1700|Bank|default|elec_equip |default, !- Name
  {da04a28b-daa7-4292-aff4-96e4c0221eb2}, !- Schedule Type Limits Name
  ,                                       !- Interpolate to Timestep
  8,                                      !- Hour 1
  0,                                      !- Minute 1
  0.4,                                    !- Value Until Time 1
  12,                                     !- Hour 2
  0,                                      !- Minute 2
  0.9,                                    !- Value Until Time 2
  13,                                     !- Hour 3
  0,                                      !- Minute 3
  0.8,                                    !- Value Until Time 3
  16,                                     !- Hour 4
  0,                                      !- Minute 4
  0.9,                                    !- Value Until Time 4
  16,                                     !- Hour 5
  30,                                     !- Minute 5
  0.8,                                    !- Value Until Time 5
  17,                                     !- Hour 6
  0,                                      !- Minute 6
  0.7,                                    !- Value Until Time 6
  17,                                     !- Hour 7
  30,                                     !- Minute 7
  0.6,                                    !- Value Until Time 7
  18,                                     !- Hour 8
  0,                                      !- Minute 8
  0.5,                                    !- Value Until Time 8
  18,                                     !- Hour 9
  30,                                     !- Minute 9
  0.49,                                   !- Value Until Time 9
  19,                                     !- Hour 10
  0,                                      !- Minute 10
  0.48,                                   !- Value Until Time 10
  19,                                     !- Hour 11
  30,                                     !- Minute 11
  0.47,                                   !- Value Until Time 11
  20,                                     !- Hour 12
  0,                                      !- Minute 12
  0.46,                                   !- Value Until Time 12
  20,                                     !- Hour 13
  30,                                     !- Minute 13
  0.45,                                   !- Value Until Time 13
  21,                                     !- Hour 14
  0,                                      !- Minute 14
  0.44,                                   !- Value Until Time 14
  21,                                     !- Hour 15
  30,                                     !- Minute 15
  0.43,                                   !- Value Until Time 15
  22,                                     !- Hour 16
  0,                                      !- Minute 16
  0.42,                                   !- Value Until Time 16
  22,                                     !- Hour 17
  30,                                     !- Minute 17
  0.41,                                   !- Value Until Time 17
  24,                                     !- Hour 18
  0,                                      !- Minute 18
  0.4;                                    !- Value Until Time 18

OS:Schedule:Day,
  {ce64d830-0d5a-472b-b53f-61eb1d54b6c1}, !- Handle
  0800|1700|Bank|default|elec_equip Summer Design Day, !- Name
  {da04a28b-daa7-4292-aff4-96e4c0221eb2}, !- Schedule Type Limits Name
  ,                                       !- Interpolate to Timestep
  24,                                     !- Hour 1
  0,                                      !- Minute 1
  1;                                      !- Value Until Time 1

OS:Schedule:Day,
  {a04ceb2d-8734-4649-aac5-9495b82aa925}, !- Handle
  0800|1700|Bank|default|elec_equip Winter Design Day, !- Name
  {da04a28b-daa7-4292-aff4-96e4c0221eb2}, !- Schedule Type Limits Name
  ,                                       !- Interpolate to Timestep
  24,                                     !- Hour 1
  0,                                      !- Minute 1
  0.4;                                    !- Value Until Time 1

OS:Schedule:Rule,
  {888957ef-ee61-4d13-a34f-ca9812422f00}, !- Handle
  0800|1700|Bank|default|elec_equip |1/1-12/31|Sun Rule, !- Name
  {3f189063-7ba7-49bd-b031-914ed6a71759}, !- Schedule Ruleset Name
  0,                                      !- Rule Order
  {2703dc91-24f7-416e-ad7e-56a13c8e2954}, !- Day Schedule Name
  Yes,                                    !- Apply Sunday
  ,                                       !- Apply Monday
  ,                                       !- Apply Tuesday
  ,                                       !- Apply Wednesday
  ,                                       !- Apply Thursday
  ,                                       !- Apply Friday
  ,                                       !- Apply Saturday
  ,                                       !- Apply Holiday
  DateRange,                              !- Date Specification Type
  1,                                      !- Start Month
  1,                                      !- Start Day
  12,                                     !- End Month
  31;                                     !- End Day

OS:Schedule:Day,
  {2703dc91-24f7-416e-ad7e-56a13c8e2954}, !- Handle
  0800|1700|Bank|default|elec_equip |1/1-12/31|Sun, !- Name
  {da04a28b-daa7-4292-aff4-96e4c0221eb2}, !- Schedule Type Limits Name
  ,                                       !- Interpolate to Timestep
  24,                                     !- Hour 1
  0,                                      !- Minute 1
  0.3;                                    !- Value Until Time 1

OS:Schedule:Rule,
  {23b9143a-094c-443d-b84e-3d428535e7e5}, !- Handle
  0800|1700|Bank|default|elec_equip |1/1-12/31|Sat Rule, !- Name
  {3f189063-7ba7-49bd-b031-914ed6a71759}, !- Schedule Ruleset Name
  1,                                      !- Rule Order
  {f2535f44-3307-402e-ac55-134af6cca583}, !- Day Schedule Name
  ,                                       !- Apply Sunday
  ,                                       !- Apply Monday
  ,                                       !- Apply Tuesday
  ,                                       !- Apply Wednesday
  ,                                       !- Apply Thursday
  ,                                       !- Apply Friday
  Yes,                                    !- Apply Saturday
  ,                                       !- Apply Holiday
  DateRange,                              !- Date Specification Type
  1,                                      !- Start Month
  1,                                      !- Start Day
  12,                                     !- End Month
  31;                                     !- End Day

OS:Schedule:Day,
  {f2535f44-3307-402e-ac55-134af6cca583}, !- Handle
  0800|1700|Bank|default|elec_equip |1/1-12/31|Sat, !- Name
  {da04a28b-daa7-4292-aff4-96e4c0221eb2}, !- Schedule Type Limits Name
  ,                                       !- Interpolate to Timestep
  5,                                      !- Hour 1
  0,                                      !- Minute 1
  0.3,                                    !- Value Until Time 1
  5,                                      !- Hour 2
  30,                                     !- Minute 2
  0.33,                                   !- Value Until Time 2
  6,                                      !- Hour 3
  0,                                      !- Minute 3
  0.37,                                   !- Value Until Time 3
  6,                                      !- Hour 4
  30,                                     !- Minute 4
  0.4,                                    !- Value Until Time 4
  7,                                      !- Hour 5
  0,                                      !- Minute 5
  0.43,                                   !- Value Until Time 5
  7,                                      !- Hour 6
  30,                                     !- Minute 6
  0.47,                                   !- Value Until Time 6
  13,                                     !- Hour 7
  0,                                      !- Minute 7
  0.5,                                    !- Value Until Time 7
  13,                                     !- Hour 8
  30,                                     !- Minute 8
  0.48,                                   !- Value Until Time 8
  14,                                     !- Hour 9
  0,                                      !- Minute 9
  0.46,                                   !- Value Until Time 9
  14,                                     !- Hour 10
  30,                                     !- Minute 10
  0.44,                                   !- Value Until Time 10
  15,                                     !- Hour 11
  0,                                      !- Minute 11
  0.42,                                   !- Value Until Time 11
  15,                                     !- Hour 12
  30,                                     !- Minute 12
  0.4,                                    !- Value Until Time 12
  16,                                     !- Hour 13
  0,                                      !- Minute 13
  0.38,                                   !- Value Until Time 13
  16,                                     !- Hour 14
  30,                                     !- Minute 14
  0.36,                                   !- Value Until Time 14
  17,                                     !- Hour 15
  0,                                      !- Minute 15
  0.34,                                   !- Value Until Time 15
  17,                                     !- Hour 16
  30,                                     !- Minute 16
  0.32,                                   !- Value Until Time 16
  24,                                     !- Hour 17
  0,                                      !- Minute 17
  0.3;                                    !- Value Until Time 17

OS:Schedule:Ruleset,
  {4ae1b3ed-103b-409b-a24b-6975cc52c4c4}, !- Handle
  0800|1700|Bank|default|thermal_ctrl,    !- Name
  {f2bd9b55-3adc-4fc2-a97b-f233aa0b3209}, !- Schedule Type Limits Name
  {4b8d27d7-7f6b-4fd0-839f-7eaa2b37129f}, !- Default Day Schedule Name
  {99fafb87-ed1c-4df7-ab06-556902e692f9}, !- Summer Design Day Schedule Name
  {864179c0-87c7-4111-8951-259566bd4634}; !- Winter Design Day Schedule Name

OS:ScheduleTypeLimits,
  {f2bd9b55-3adc-4fc2-a97b-f233aa0b3209}, !- Handle
  Dimensionless Schedule Type Limits,     !- Name
  ,                                       !- Lower Limit Value {BasedOnField A4}
  ,                                       !- Upper Limit Value {BasedOnField A4}
  Continuous,                             !- Numeric Type
  Dimensionless;                          !- Unit Type

OS:Schedule:Day,
  {4b8d27d7-7f6b-4fd0-839f-7eaa2b37129f}, !- Handle
  0800|1700|Bank|default|thermal_ctrl |default, !- Name
  {f2bd9b55-3adc-4fc2-a97b-f233aa0b3209}, !- Schedule Type Limits Name
  ,                                       !- Interpolate to Timestep
  24,                                     !- Hour 1
  0,                                      !- Minute 1
  4;                                      !- Value Until Time 1

OS:Schedule:Day,
  {99fafb87-ed1c-4df7-ab06-556902e692f9}, !- Handle
  0800|1700|Bank|default|thermal_ctrl Summer Design Day, !- Name
  {f2bd9b55-3adc-4fc2-a97b-f233aa0b3209}, !- Schedule Type Limits Name
  ,                                       !- Interpolate to Timestep
  24,                                     !- Hour 1
  0,                                      !- Minute 1
  4;                                      !- Value Until Time 1

OS:Schedule:Day,
  {864179c0-87c7-4111-8951-259566bd4634}, !- Handle
  0800|1700|Bank|default|thermal_ctrl Winter Design Day, !- Name
  {f2bd9b55-3adc-4fc2-a97b-f233aa0b3209}, !- Schedule Type Limits Name