
OS:Version,
  {afaf7aa8-a6ea-4fed-a379-686fbd0dbc8f}, !- Handle
  1.5.5;                                  !- Version Identifier

OS:ClimateZones,
  {135edfab-17e7-40db-a436-27d385a8cd6d}, !- Handle
  ,                                       !- Active Institution
  ,                                       !- Active Year
  ASHRAE,                                 !- Climate Zone Institution Name 1
  ANSI/ASHRAE Standard 169,               !- Climate Zone Document Name 1
  2006,                                   !- Climate Zone Document Year 1
  ,                                       !- Climate Zone Value 1
  CEC,                                    !- Climate Zone Institution Name 2
  California Climate Zone Descriptions,   !- Climate Zone Document Name 2
  1995,                                   !- Climate Zone Document Year 2
  ;                                       !- Climate Zone Value 2

OS:YearDescription,
  {513d8dda-86cb-442a-b01c-1f7f0e0ac70e}; !- Handle

OS:RadianceParameters,
  {270a96f1-3c86-4b75-a667-cdf22790e2c8}, !- Handle
  1,                                      !- Accumulated Rays per Record
  0,                                      !- Direct Threshold
  1,                                      !- Direct Certainty
  1,                                      !- Direct Jitter
  1,                                      !- Direct Pretest
  6,                                      !- Ambient Bounces VMX
  2,                                      !- Ambient Bounces DMX
  4050,                                   !- Ambient Divisions VMX
  512,                                    !- Ambient Divisions DMX
  256,                                    !- Ambient Supersamples
  0.001,                                  !- Limit Weight VMX
  0.001,                                  !- Limit Weight DMX
  500,                                    !- Klems Sampling Density
  146;                                    !- Sky Discretization Resolution

OS:SimulationControl,
  {2c487a4c-bac9-4ac5-b669-1e49d9da7c2b}, !- Handle
  ,                                       !- Do Zone Sizing Calculation
  ,                                       !- Do System Sizing Calculation
  ,                                       !- Do Plant Sizing Calculation
  No,                                     !- Run Simulation for Sizing Periods
  ,                                       !- Run Simulation for Weather File Run Periods
  0.04,                                   !- Loads Convergence Tolerance Value
  ,                                       !- Temperature Convergence Tolerance Value {deltaC}
  ,                                       !- Solar Distribution
  ,                                       !- Maximum Number of Warmup Days
  2;                                      !- Minimum Number of Warmup Days

OS:Sizing:Parameters,
  {dde5af6f-7923-4600-a28a-7556673a0266}, !- Handle
  1.25,                                   !- Heating Sizing Factor
  1.15;                                   !- Cooling Sizing Factor

OS:ProgramControl,
  {05027a99-f2b3-4aeb-afc6-1425fbb4371d}; !- Handle

OS:Timestep,
  {4ebc9f1e-4707-402e-9844-67eb1ffbd522}, !- Handle
  2;                                      !- Number of Timesteps per Hour

OS:OutputControl:ReportingTolerances,
  {65797aa2-06a9-45fe-b69d-bc6e060399d3}; !- Handle

OS:ConvergenceLimits,
  {9fc11aba-8822-4f3d-970c-46391ba4040d}; !- Handle

OS:ShadowCalculation,
  {ca758bea-4416-4626-9bba-3d8795c79bd6}, !- Handle
  7,                                      !- Calculation Frequency
  15000;                                  !- Maximum Figures in Shadow Overlap Calculations

OS:SurfaceConvectionAlgorithm:Inside,
  {aaabfc36-718a-4ab0-b622-f186ebb45230}, !- Handle
  TARP;                                   !- Algorithm

OS:SurfaceConvectionAlgorithm:Outside,
  {9a0a9f6f-4bbd-4b12-a121-9492a1fcd7d6}, !- Handle
  DOE-2;                                  !- Algorithm

OS:HeatBalanceAlgorithm,
  {9d93e563-e1e0-46d7-9e39-d1c8aceb7212}, !- Handle
  ConductionTransferFunction,             !- Algorithm
  200;                                    !- Surface Temperature Upper Limit {F}

OS:ZoneAirHeatBalanceAlgorithm,
  {8520d93e-310f-4696-9bcd-36228bfdd743}, !- Handle
  AnalyticalSolution;                     !- Algorithm

OS:ZoneAirContaminantBalance,
  {eb5fc3ae-fb22-4160-8fcb-3e3b22b000d3}; !- Handle

OS:ZoneCapacitanceMultiplier:ResearchSpecial,
  {4020ce4f-5a7a-4849-8028-8305d7b751b1}, !- Handle
  ,                                       !- Temperature Capacity Multiplier
  ,                                       !- Humidity Capacity Multiplier
  ;                                       !- Carbon Dioxide Capacity Multiplier

OS:RunPeriod,
  {28df894d-6af9-4fb8-8f56-df1753344aa3}, !- Handle
  Run Period 1,                           !- Name
  1,                                      !- Begin Month
  1,                                      !- Begin Day of Month
  12,                                     !- End Month
  31,                                     !- End Day of Month
  ,                                       !- Use Weather File Holidays and Special Days
  ,                                       !- Use Weather File Daylight Saving Period
  ,                                       !- Apply Weekend Holiday Rule
  ,                                       !- Use Weather File Rain Indicators
  ,                                       !- Use Weather File Snow Indicators
  ;                                       !- Number of Times Runperiod to be Repeated

OS:Building,
  {bf305633-c5a1-4881-9edf-ca5e1a8e1274}, !- Handle
  Building 1,                             !- Name
  ,                                       !- Building Sector Type
  ,                                       !- North Axis {deg}
  ,                                       !- Nominal Floor to Floor Height {m}
  ,                                       !- Space Type Name
  ,                                       !- Default Construction Set Name
  {34d6dfa3-2057-4b67-a008-b7ae49895ac9}, !- Default Schedule Set Name
  ,                                       !- Standards Number of Stories
  ,                                       !- Standards Number of Above Ground Stories
  Bank;                                   !- Standards Building Type

OS:LifeCycleCost:Parameters,
  {231cf8a0-f0e7-4251-a99f-11f0d464e661}, !- Handle
  FEMP,                                   !- Analysis Type
  ,                                       !- Discounting Convention
  ,                                       !- Inflation Approach
  ,                                       !- Real Discount Rate
  ,                                       !- Nominal Discount Rate
  ,                                       !- Inflation
  ,                                       !- Base Date Month
  ,                                       !- Base Date Year
  ,                                       !- Service Date Month
  ,                                       !- Service Date Year
  ,                                       !- Length of Study Period in Years
  ,                                       !- Tax Rate
  ,                                       !- Depreciation Method
  Yes;                                    !- Use NIST Fuel Escalation Rates

OS:Facility,
  {3ba8e45b-b833-44eb-a723-ea6c3946dc96}; !- Handle

OS:SpaceType,
  {35ceef9b-33ab-4d0a-a69c-efb01611a8f2}, !- Handle
  Bank|BlendFront|DOE Ref 1980-2004|ASHRAE 169-2006-5A, !- Name
  {f898cf82-d472-4eca-8926-405d6de74f62}, !- Default Construction Set Name
  ,                                       !- Default Schedule Set Name
  {1c56d4eb-03d6-45d5-ae50-3ff30203b4fc}, !- Group Rendering Name
  {9e54029c-b4d0-4dab-9be0-e98a7879e5b5}, !- Design Specification Outdoor Air Object Name
  Bank,                                   !- Standards Building Type
  BlendFront;                             !- Standards Space Type

OS:Rendering:Color,
  {1c56d4eb-03d6-45d5-ae50-3ff30203b4fc}, !- Handle
  Rendering Color 1,                      !- Name
  230,                                    !- Rendering Red Value
  157,                                    !- Rendering Green Value
  120;                                    !- Rendering Blue Value

OS:SpaceType,
  {5fe0fb4e-f5c8-4513-a534-a71968a45ce7}, !- Handle
  Bank|Elec/MechRoom|DOE Ref 1980-2004|ASHRAE 169-2006-5A, !- Name
  {f898cf82-d472-4eca-8926-405d6de74f62}, !- Default Construction Set Name
  {22796430-7114-42f7-973b-13fff311e6ae}, !- Default Schedule Set Name
  {8a0f88a0-6ea4-401a-82d5-d91874b893a5}, !- Group Rendering Name
  {77ebcd21-9f9b-4b59-853c-7d2b8e03992f}, !- Design Specification Outdoor Air Object Name
  Bank,                                   !- Standards Building Type
  Elec/MechRoom;                          !- Standards Space Type

OS:Rendering:Color,
  {8a0f88a0-6ea4-401a-82d5-d91874b893a5}, !- Handle
  Rendering Color 2,                      !- Name
  41,                                     !- Rendering Red Value
  31,                                     !- Rendering Green Value
  169;                                    !- Rendering Blue Value

OS:SpaceType,
  {447f247f-b477-4b4a-93cb-7df1ca09de4b}, !- Handle
  Bank|Restroom|DOE Ref 1980-2004|ASHRAE 169-2006-5A, !- Name
  {f898cf82-d472-4eca-8926-405d6de74f62}, !- Default Construction Set Name
  {781b42b7-5b09-42d5-8e52-c23f3945233d}, !- Default Schedule Set Name
  {54bb2117-5190-4757-bcc6-068b2c3b6a67}, !- Group Rendering Name
  {19600493-b9cc-49fb-b94d-fef610f76465}, !- Design Specification Outdoor Air Object Name
  Bank,                                   !- Standards Building Type
  Restroom;                               !- Standards Space Type

OS:Rendering:Color,
  {54bb2117-5190-4757-bcc6-068b2c3b6a67}, !- Handle
  Rendering Color 3,                      !- Name
  169,                                    !- Rendering Red Value
  169,                                    !- Rendering Green Value
  31;                                     !- Rendering Blue Value

OS:SpaceType,
  {3ac2fff6-48dd-43e0-9e63-9c4c01241763}, !- Handle
  Bank|Vault|DOE Ref 1980-2004|ASHRAE 169-2006-5A, !- Name
  {f898cf82-d472-4eca-8926-405d6de74f62}, !- Default Construction Set Name
  {5f95d74c-4a05-4d57-8c51-96f7de055841}, !- Default Schedule Set Name
  {f2a2b773-0dc5-407a-9de3-18abe8b9dd83}, !- Group Rendering Name
  {d6773005-6c47-47c8-9464-da21d9678d7f}, !- Design Specification Outdoor Air Object Name
  Bank,                                   !- Standards Building Type
  Vault;                                  !- Standards Space Type

OS:Rendering:Color,
  {f2a2b773-0dc5-407a-9de3-18abe8b9dd83}, !- Handle
  Rendering Color 4,                      !- Name
  120,                                    !- Rendering Red Value
  120,                                    !- Rendering Green Value
  120;                                    !- Rendering Blue Value

OS:Schedule:Ruleset,
  {deac363d-02b2-4cf2-9dd6-673704428cbc}, !- Handle
  0800|1700|Bank|default|hoo,             !- Name
  {c705aeb1-0d85-42a8-be16-f061f9a01aed}, !- Schedule Type Limits Name
  {bedf0e1f-bb1e-435f-a3f4-98fd836305b1}, !- Default Day Schedule Name
  {43d163a5-3266-49cd-bcff-2388fb2503a9}, !- Summer Design Day Schedule Name
  {7f183827-79d5-42ae-8127-e094d4537905}; !- Winter Design Day Schedule Name

OS:Schedule:Day,
  {bedf0e1f-bb1e-435f-a3f4-98fd836305b1}, !- Handle
  0800|1700|Bank|default|hoo Schedule Week Day, !- Name
  {c705aeb1-0d85-42a8-be16-f061f9a01aed}, !- Schedule Type Limits Name
  ,                                       !- Interpolate to Timestep
  8,                                      !- Hour 1
  0,                                      !- Minute 1
  0,                                      !- Value Until Time 1
  17,                                     !- Hour 2
  0,                                      !- Minute 2
  1,                                      !- Value Until Time 2
  24,                                     !- Hour 3
  0,                                      !- Minute 3
  0;                                      !- Value Until Time 3

OS:Schedule:Day,
  {87507f31-c30f-4229-b6bd-23700bcd4676}, !- Handle
  Schedule Day 2,                         !- Name
  ,                                       !- Schedule Type Limits Name
  ,                                       !- Interpolate to Timestep
  24,                                     !- Hour 1
  0,                                      !- Minute 1
  0;                                      !- Value Until Time 1

OS:Schedule:Day,
  {7f183827-79d5-42ae-8127-e094d4537905}, !- Handle
  0800|1700|Bank|default|hoo Winter Design Day, !- Name
  {c705aeb1-0d85-42a8-be16-f061f9a01aed}, !- Schedule Type Limits Name
  ,                                       !- Interpolate to Timestep
  24,                                     !- Hour 1
  0,                                      !- Minute 1
  0;                                      !- Value Until Time 1

OS:Schedule:Day,
  {35d3d34d-8bce-4039-934d-1052066c4a2c}, !- Handle
  Schedule Day 3,                         !- Name
  ,                                       !- Schedule Type Limits Name
  ,                                       !- Interpolate to Timestep
  24,                                     !- Hour 1
  0,                                      !- Minute 1
  0;                                      !- Value Until Time 1

OS:Schedule:Day,
  {43d163a5-3266-49cd-bcff-2388fb2503a9}, !- Handle
  0800|1700|Bank|default|hoo Summer Design Day, !- Name
  {c705aeb1-0d85-42a8-be16-f061f9a01aed}, !- Schedule Type Limits Name
  ,                                       !- Interpolate to Timestep
  24,                                     !- Hour 1
  0,                                      !- Minute 1
  1;                                      !- Value Until Time 1

OS:DefaultScheduleSet,
  {34d6dfa3-2057-4b67-a008-b7ae49895ac9}, !- Handle
  Building Hours of Operation,            !- Name
  {deac363d-02b2-4cf2-9dd6-673704428cbc}, !- Hours of Operation Schedule Name
  ,                                       !- Number of People Schedule Name
  ,                                       !- People Activity Level Schedule Name
  ,                                       !- Lighting Schedule Name
  ,                                       !- Electric Equipment Schedule Name
  ,                                       !- Gas Equipment Schedule Name
  ,                                       !- Hot Water Equipment Schedule Name
  ,                                       !- Infiltration Schedule Name
  ,                                       !- Steam Equipment Schedule Name
  ;                                       !- Other Equipment Schedule Name

OS:ScheduleTypeLimits,
  {c705aeb1-0d85-42a8-be16-f061f9a01aed}, !- Handle
  OnOff,                                  !- Name
  0,                                      !- Lower Limit Value {BasedOnField A4}
  1,                                      !- Upper Limit Value {BasedOnField A4}
  Discrete,                               !- Numeric Type
  Availability;                           !- Unit Type

OS:Schedule:Ruleset,
  {116926e2-dbbd-4f41-8cda-8dc745819f58}, !- Handle
  0800|1700|Bank|default|rh,              !- Name
  {4aed9441-0602-47a9-928e-41cc67062ae4}, !- Schedule Type Limits Name
  {5b52c4bc-2252-4735-9167-34140963184c}, !- Default Day Schedule Name
  {65d8ab96-f591-4441-b30d-ba019390d56f}, !- Summer Design Day Schedule Name
  {b5d0b869-19d6-4328-bbc7-d1eb139fd1d3}; !- Winter Design Day Schedule Name

OS:ScheduleTypeLimits,
  {4aed9441-0602-47a9-928e-41cc67062ae4}, !- Handle
  Dimensionless Schedule Type Limits,     !- Name
  ,                                       !- Lower Limit Value {BasedOnField A4}
  ,                                       !- Upper Limit Value {BasedOnField A4}
  Continuous,                             !- Numeric Type
  Dimensionless;                          !- Unit Type

OS:Schedule:Day,
  {5b52c4bc-2252-4735-9167-34140963184c}, !- Handle
  0800|1700|Bank|default|rh |default,     !- Name
  {4aed9441-0602-47a9-928e-41cc67062ae4}, !- Schedule Type Limits Name
  ,                                       !- Interpolate to Timestep
  24,                                     !- Hour 1
  0,                                      !- Minute 1
  50;                                     !- Value Until Time 1

OS:Schedule:Day,
  {65d8ab96-f591-4441-b30d-ba019390d56f}, !- Handle
  0800|1700|Bank|default|rh Summer Design Day, !- Name
  {4aed9441-0602-47a9-928e-41cc67062ae4}, !- Schedule Type Limits Name
  ,                                       !- Interpolate to Timestep
  24,                                     !- Hour 1
  0,                                      !- Minute 1
  50;                                     !- Value Until Time 1

OS:Schedule:Day,
  {b5d0b869-19d6-4328-bbc7-d1eb139fd1d3}, !- Handle
  0800|1700|Bank|default|rh Winter Design Day, !- Name
  {4aed9441-0602-47a9-928e-41cc67062ae4}, !- Schedule Type Limits Name
  ,                                       !- Interpolate to Timestep
  24,                                     !- Hour 1
  0,                                      !- Minute 1
  50;                                     !- Value Until Time 1

OS:Schedule:Ruleset,
  {b1e52fc2-3521-471a-8a18-82d89b4774fd}, !- Handle
  0800|1700|Bank|default|thermal_ctrl,    !- Name
  {4aed9441-0602-47a9-928e-41cc67062ae4}, !- Schedule Type Limits Name
  {78c95893-25a6-49e1-bca4-d10c5eb25c37}, !- Default Day Schedule Name
  {731f7596-1740-41ab-90ad-f68699a4aff7}, !- Summer Design Day Schedule Name
  {b0e7b770-dbd5-4be6-88bf-ce7b000481ee}; !- Winter Design Day Schedule Name

OS:Schedule:Day,
  {78c95893-25a6-49e1-bca4-d10c5eb25c37}, !- Handle
  0800|1700|Bank|default|thermal_ctrl |default, !- Name
  {4aed9441-0602-47a9-928e-41cc67062ae4}, !- Schedule Type Limits Name
  ,                                       !- Interpolate to Timestep
  24,                                     !- Hour 1
  0,                                      !- Minute 1
  4;                                      !- Value Until Time 1

OS:Schedule:Day,
  {731f7596-1740-41ab-90ad-f68699a4aff7}, !- Handle
  0800|1700|Bank|default|thermal_ctrl Summer Design Day, !- Name
  {4aed9441-0602-47a9-928e-41cc67062ae4}, !- Schedule Type Limits Name
  ,                                       !- Interpolate to Timestep
  24,                                     !- Hour 1
  0,                                      !- Minute 1
  4;                                      !- Value Until Time 1

OS:Schedule:Day,
  {b0e7b770-dbd5-4be6-88bf-ce7b000481ee}, !- Handle
  0800|1700|Bank|default|thermal_ctrl Winter Design Day, !- Name
  {4aed9441-0602-47a9-928e-41cc67062ae4}, !- Schedule Type Limits Name
  ,                                       !- Interpolate to Timestep
  24,                                     !- Hour 1
  0,                                      !- Minute 1
  4;                                      !- Value Until Time 1

OS:Schedule:Ruleset,
  {ec4449f9-5e0d-42df-9281-9936d6d5295a}, !- Handle
  0800|1700|Bank|default|hvac,            !- Name
  {fe0af5d9-a1f0-4817-9600-019f1a549f69}, !- Schedule Type Limits Name
  {776388ae-0d21-4dc8-b9f8-7456218f88e7}, !- Default Day Schedule Name
  {0c09609e-ec24-462f-ac45-f129ae8ef2b3}, !- Summer Design Day Schedule Name
  {27fb9f9e-b020-4dc8-b474-dc34973d9250}; !- Winter Design Day Schedule Name

OS:ScheduleTypeLimits,
  {fe0af5d9-a1f0-4817-9600-019f1a549f69}, !- Handle
  HVAC Operation Schedule Type Limits,    !- Name
  0,                                      !- Lower Limit Value {BasedOnField A4}
  1,                                      !- Upper Limit Value {BasedOnField A4}
  Discrete,                               !- Numeric Type
  Availability;                           !- Unit Type

OS:Schedule:Day,
  {776388ae-0d21-4dc8-b9f8-7456218f88e7}, !- Handle
  0800|1700|Bank|default|hvac |default,   !- Name
  {fe0af5d9-a1f0-4817-9600-019f1a549f69}, !- Schedule Type Limits Name
  ,                                       !- Interpolate to Timestep
  6,                                      !- Hour 1
  0,                                      !- Minute 1
  0,                                      !- Value Until Time 1
  22,                                     !- Hour 2
  0,                                      !- Minute 2
  1,                                      !- Value Until Time 2
  24,                                     !- Hour 3
  0,                                      !- Minute 3
  0;                                      !- Value Until Time 3

OS:Schedule:Day,
  {0c09609e-ec24-462f-ac45-f129ae8ef2b3}, !- Handle
  0800|1700|Bank|default|hvac Summer Design Day, !- Name
  {fe0af5d9-a1f0-4817-9600-019f1a549f69}, !- Schedule Type Limits Name
  ,                                       !- Interpolate to Timestep
  6,                                      !- Hour 1
  0,                                      !- Minute 1
  0,                                      !- Value Until Time 1
  22,                                     !- Hour 2
  0,                                      !- Minute 2
  1,                                      !- Value Until Time 2
  24,                                     !- Hour 3
  0,                                      !- Minute 3
  0;                                      !- Value Until Time 3

OS:Schedule:Day,
  {27fb9f9e-b020-4dc8-b474-dc34973d9250}, !- Handle
  0800|1700|Bank|default|hvac Winter Design Day, !- Name
  {fe0af5d9-a1f0-4817-9600-019f1a549f69}, !- Schedule Type Limits Name
  ,                                       !- Interpolate to Timestep
  6,                                      !- Hour 1
  0,                                      !- Minute 1
  0,                                      !- Value Until Time 1
  22,                                     !- Hour 2
  0,                                      !- Minute 2
  1,                                      !- Value Until Time 2
  24,                                     !- Hour 3
  0,                                      !- Minute 3
  0;                                      !- Value Until Time 3

OS:Schedule:Rule,
  {f07c0059-d985-481c-88a6-8a53ffa4c062}, !- Handle
  0800|1700|Bank|default|hvac |1/1-12/31|Sun Rule, !- Name
  {ec4449f9-5e0d-42df-9281-9936d6d5295a}, !- Schedule Ruleset Name
  0,                                      !- Rule Order
  {712d1823-7478-4387-aa9e-df047f6a7990}, !- Day Schedule Name
  Yes,                                    !- Apply Sunday
  ,                                       !- Apply Monday
  ,                                       !- Apply Tuesday
  ,                                       !- Apply Wednesday
  ,                                       !- Apply Thursday
  ,                                       !- Apply Friday
  ,                                       !- Apply Saturday
  ,                                       !- Apply Holiday
  DateRange,                              !- Date Specification Type
  1,                                      !- Start Month
  1,                                      !- Start Day
  12,                                     !- End Month
  31;                                     !- End Day

OS:Schedule:Day,
  {712d1823-7478-4387-aa9e-df047f6a7990}, !- Handle
  0800|1700|Bank|default|hvac |1/1-12/31|Sun, !- Name
  {fe0af5d9-a1f0-4817-9600-019f1a549f69}, !- Schedule Type Limits Name
  ,                                       !- Interpolate to Timestep
  24,                                     !- Hour 1
  0,                                      !- Minute 1
  0;                                      !- Value Until Time 1

OS:Schedule:Rule,
  {7371d7df-357b-4a94-90b5-cf89b8ffee4b}, !- Handle
  0800|1700|Bank|default|hvac |1/1-12/31|Sat Rule, !- Name
  {ec4449f9-5e0d-42df-9281-9936d6d5295a}, !- Schedule Ruleset Name
  1,                                      !- Rule Order
  {63b24f15-c758-45d2-a740-462c63e7ca19}, !- Day Schedule Name
  ,                                       !- Apply Sunday
  ,                                       !- Apply Monday
  ,                                       !- Apply Tuesday
  ,                                       !- Apply Wednesday
  ,                                       !- Apply Thursday
  ,                                       !- Apply Friday
  Yes,                                    !- Apply Saturday
  ,                                       !- Apply Holiday
  DateRange,                              !- Date Specification Type
  1,                                      !- Start Month
  1,                                      !- Start Day
  12,                                     !- End Month
  31;                                     !- End Day

OS:Schedule:Day,
  {63b24f15-c758-45d2-a740-462c63e7ca19}, !- Handle
  0800|1700|Bank|default|hvac |1/1-12/31|Sat, !- Name
  {fe0af5d9-a1f0-4817-9600-019f1a549f69}, !- Schedule Type Limits Name
  ,                                       !- Interpolate to Timestep
  6,                                      !- Hour 1
  0,                                      !- Minute 1
  0,                                      !- Value Until Time 1
  18,                                     !- Hour 2
  0,                                      !- Minute 2
  1,                                      !- Value Until Time 2
  24,                                     !- Hour 3
  0,                                      !- Minute 3
  0;                                      !- Value Until Time 3

OS:Schedule:Ruleset,
  {ac66645c-9f43-4253-b895-96f38b8439b3}, !- Handle
  0800|1700|Bank|default|clg_setpoint,    !- Name
  {832c65da-bd4a-4822-8798-69e8addcd32b}, !- Schedule Type Limits Name
  {20a466e0-0206-4356-aa52-06811e0bdfc8}, !- Default Day Schedule Name
  {b1617dad-59a1-4fce-b10c-b6a9c021252a}, !- Summer Design Day Schedule Name
  {4926943e-3741-452e-880f-ab9cb41837c8}; !- Winter Design Day Schedule Name

OS:ScheduleTypeLimits,
  {832c65da-bd4a-4822-8798-69e8addcd32b}, !- Handle
  Thermostat Cooling Setpoint Schedule Type Limits, !- Name
  0,                                      !- Lower Limit Value {BasedOnField A4}
  100,                                    !- Upper Limit Value {BasedOnField A4}
  Continuous,                             !- Numeric Type
  Temperature;                            !- Unit Type

OS:Schedule:Day,
  {20a466e0-0206-4356-aa52-06811e0bdfc8}, !- Handle
  0800|1700|Bank|default|clg_setpoint |default, !- Name
  {832c65da-bd4a-4822-8798-69e8addcd32b}, !- Schedule Type Limits Name
  ,                                       !- Interpolate to Timestep
  24,                                     !- Hour 1
  0,                                      !- Minute 1
  24.0000000000001;                       !- Value Until Time 1

OS:Schedule:Day,
  {b1617dad-59a1-4fce-b10c-b6a9c021252a}, !- Handle
  0800|1700|Bank|default|clg_setpoint Summer Design Day, !- Name
  {832c65da-bd4a-4822-8798-69e8addcd32b}, !- Schedule Type Limits Name
  ,                                       !- Interpolate to Timestep
  24,                                     !- Hour 1
  0,                                      !- Minute 1
  24.0000000000001;                       !- Value Until Time 1

OS:Schedule:Day,
  {4926943e-3741-452e-880f-ab9cb41837c8}, !- Handle
  0800|1700|Bank|default|clg_setpoint Winter Design Day, !- Name
  {832c65da-bd4a-4822-8798-69e8addcd32b}, !- Schedule Type Limits Name
  ,                                       !- Interpolate to Timestep
  24,                                     !- Hour 1
  0,                                      !- Minute 1
  24.0000000000001;                       !- Value Until Time 1

OS:Schedule:Rule,
  {832ab5b4-dff9-4af7-bdb8-2d58d15b33f0}, !- Handle
  0800|1700|Bank|default|clg_setpoint |1/1-12/31|Sun Rule, !- Name
  {ac66645c-9f43-4253-b895-96f38b8439b3}, !- Schedule Ruleset Name
  0,                                      !- Rule Order
  {95537ec3-f818-4bd1-a8f5-b9f880343b3c}, !- Day Schedule Name
  Yes,                                    !- Apply Sunday
  ,                                       !- Apply Monday
  ,                                       !- Apply Tuesday
  ,                                       !- Apply Wednesday
  ,                                       !- Apply Thursday
  ,                                       !- Apply Friday
  ,                                       !- Apply Saturday
  ,                                       !- Apply Holiday
  DateRange,                              !- Date Specification Type
  1,                                      !- Start Month
  1,                                      !- Start Day
  12,                                     !- End Month
  31;                                     !- End Day

OS:Schedule:Day,
  {95537ec3-f818-4bd1-a8f5-b9f880343b3c}, !- Handle
  0800|1700|Bank|default|clg_setpoint |1/1-12/31|Sun, !- Name
  {832c65da-bd4a-4822-8798-69e8addcd32b}, !- Schedule Type Limits Name
  ,                                       !- Interpolate to Timestep
  24,                                     !- Hour 1
  0,                                      !- Minute 1
  24.0000000000001;                       !- Value Until Time 1

OS:Schedule:Rule,
  {c921f705-8a29-4e66-bd67-ba6d42533d58}, !- Handle
  0800|1700|Bank|default|clg_setpoint |1/1-12/31|Sat Rule, !- Name
  {ac66645c-9f43-4253-b895-96f38b8439b3}, !- Schedule Ruleset Name
  1,                                      !- Rule Order
  {7b8b8cd6-a97c-4d6d-819c-c104cbbbf788}, !- Day Schedule Name
  ,                                       !- Apply Sunday
  ,                                       !- Apply Monday
  ,                                       !- Apply Tuesday
  ,                                       !- Apply Wednesday
  ,                                       !- Apply Thursday
  ,                                       !- Apply Friday
  Yes,                                    !- Apply Saturday
  ,                                       !- Apply Holiday