
OS:Version,
  {a1e38b2e-3232-4d68-9251-2a1673d943eb}, !- Handle
  1.6.0;                                  !- Version Identifier

OS:ClimateZones,
  {135edfab-17e7-40db-a436-27d385a8cd6d}, !- Handle
  ,                                       !- Active Institution
  ,                                       !- Active Year
  ASHRAE,                                 !- Climate Zone Institution Name 1
  ANSI/ASHRAE Standard 169,               !- Climate Zone Document Name 1
  2006,                                   !- Climate Zone Document Year 1
  ,                                       !- Climate Zone Value 1
  CEC,                                    !- Climate Zone Institution Name 2
  California Climate Zone Descriptions,   !- Climate Zone Document Name 2
  1995,                                   !- Climate Zone Document Year 2
  ;                                       !- Climate Zone Value 2

OS:YearDescription,
  {513d8dda-86cb-442a-b01c-1f7f0e0ac70e}; !- Handle

OS:RadianceParameters,
  {270a96f1-3c86-4b75-a667-cdf22790e2c8}, !- Handle
  1,                                      !- Accumulated Rays per Record
  0,                                      !- Direct Threshold
  1,                                      !- Direct Certainty
  1,                                      !- Direct Jitter
  1,                                      !- Direct Pretest
  6,                                      !- Ambient Bounces VMX
  2,                                      !- Ambient Bounces DMX
  4050,                                   !- Ambient Divisions VMX
  512,                                    !- Ambient Divisions DMX
  256,                                    !- Ambient Supersamples
  0.001,                                  !- Limit Weight VMX
  0.001,                                  !- Limit Weight DMX
  500,                                    !- Klems Sampling Density
  146;                                    !- Sky Discretization Resolution

OS:SimulationControl,
  {2c487a4c-bac9-4ac5-b669-1e49d9da7c2b}, !- Handle
  ,                                       !- Do Zone Sizing Calculation
  ,                                       !- Do System Sizing Calculation
  ,                                       !- Do Plant Sizing Calculation
  No,                                     !- Run Simulation for Sizing Periods
  ,                                       !- Run Simulation for Weather File Run Periods
  0.04,                                   !- Loads Convergence Tolerance Value
  ,                                       !- Temperature Convergence Tolerance Value {deltaC}
  ,                                       !- Solar Distribution
  ,                                       !- Maximum Number of Warmup Days
  2;                                      !- Minimum Number of Warmup Days

OS:Sizing:Parameters,
  {dde5af6f-7923-4600-a28a-7556673a0266}, !- Handle
  1.25,                                   !- Heating Sizing Factor
  1.15;                                   !- Cooling Sizing Factor

OS:ProgramControl,
  {05027a99-f2b3-4aeb-afc6-1425fbb4371d}; !- Handle

OS:Timestep,
  {4ebc9f1e-4707-402e-9844-67eb1ffbd522}, !- Handle
  2;                                      !- Number of Timesteps per Hour

OS:OutputControl:ReportingTolerances,
  {65797aa2-06a9-45fe-b69d-bc6e060399d3}; !- Handle

OS:ConvergenceLimits,
  {9fc11aba-8822-4f3d-970c-46391ba4040d}; !- Handle

OS:ShadowCalculation,
  {ca758bea-4416-4626-9bba-3d8795c79bd6}, !- Handle
  7,                                      !- Calculation Frequency
  15000;                                  !- Maximum Figures in Shadow Overlap Calculations

OS:SurfaceConvectionAlgorithm:Inside,
  {aaabfc36-718a-4ab0-b622-f186ebb45230}, !- Handle
  TARP;                                   !- Algorithm

OS:SurfaceConvectionAlgorithm:Outside,
  {9a0a9f6f-4bbd-4b12-a121-9492a1fcd7d6}, !- Handle
  DOE-2;                                  !- Algorithm

OS:HeatBalanceAlgorithm,
  {9d93e563-e1e0-46d7-9e39-d1c8aceb7212}, !- Handle
  ConductionTransferFunction,             !- Algorithm
  200;                                    !- Surface Temperature Upper Limit {F}

OS:ZoneAirHeatBalanceAlgorithm,
  {8520d93e-310f-4696-9bcd-36228bfdd743}, !- Handle
  AnalyticalSolution;                     !- Algorithm

OS:ZoneAirContaminantBalance,
  {eb5fc3ae-fb22-4160-8fcb-3e3b22b000d3}; !- Handle

OS:ZoneCapacitanceMultiplier:ResearchSpecial,
  {4020ce4f-5a7a-4849-8028-8305d7b751b1}, !- Handle
  ,                                       !- Temperature Capacity Multiplier
  ,                                       !- Humidity Capacity Multiplier
  ;                                       !- Carbon Dioxide Capacity Multiplier

OS:RunPeriod,
  {28df894d-6af9-4fb8-8f56-df1753344aa3}, !- Handle
  Run Period 1,                           !- Name
  1,                                      !- Begin Month
  1,                                      !- Begin Day of Month
  12,                                     !- End Month
  31,                                     !- End Day of Month
  ,                                       !- Use Weather File Holidays and Special Days
  ,                                       !- Use Weather File Daylight Saving Period
  ,                                       !- Apply Weekend Holiday Rule
  ,                                       !- Use Weather File Rain Indicators
  ,                                       !- Use Weather File Snow Indicators
  ;                                       !- Number of Times Runperiod to be Repeated

OS:Building,
  {bf305633-c5a1-4881-9edf-ca5e1a8e1274}, !- Handle
  Building 1,                             !- Name
  ,                                       !- Building Sector Type
  ,                                       !- North Axis {deg}
  ,                                       !- Nominal Floor to Floor Height {m}
  ,                                       !- Space Type Name
  ,                                       !- Default Construction Set Name
  {a56489c9-3cc8-4e9d-ac9c-3df33bc7296a}; !- Default Schedule Set Name

OS:LifeCycleCost:Parameters,
  {231cf8a0-f0e7-4251-a99f-11f0d464e661}, !- Handle
  FEMP,                                   !- Analysis Type
  ,                                       !- Discounting Convention
  ,                                       !- Inflation Approach
  ,                                       !- Real Discount Rate
  ,                                       !- Nominal Discount Rate
  ,                                       !- Inflation
  ,                                       !- Base Date Month
  ,                                       !- Base Date Year
  ,                                       !- Service Date Month
  ,                                       !- Service Date Year
  ,                                       !- Length of Study Period in Years
  ,                                       !- Tax Rate
  ,                                       !- Depreciation Method
  Yes;                                    !- Use NIST Fuel Escalation Rates

OS:Facility,
  {3ba8e45b-b833-44eb-a723-ea6c3946dc96}; !- Handle

OS:SpaceType,
  {0c21d86b-ab03-46f8-8035-70cb01f477d8}, !- Handle
  Bank|BlendFront|DOE Ref 1980-2004|ASHRAE 169-2006-5A, !- Name
  {35b4684d-fc5f-4660-9838-f21aa6117326}, !- Default Construction Set Name
  ,                                       !- Default Schedule Set Name
  {0b32f7bc-511d-4e76-9ee2-84a3621562a1}, !- Group Rendering Name
  {e8c873c4-77a7-4131-8bf3-88874b1e7937}, !- Design Specification Outdoor Air Object Name
  Bank,                                   !- Standards Building Type
  BlendFront;                             !- Standards Space Type

OS:Rendering:Color,
  {0b32f7bc-511d-4e76-9ee2-84a3621562a1}, !- Handle
  Rendering Color 1,                      !- Name
  230,                                    !- Rendering Red Value
  157,                                    !- Rendering Green Value
  120;                                    !- Rendering Blue Value

OS:Schedule:Ruleset,
  {eb0168be-5cf0-43f4-a328-182ff0474937}, !- Handle
  0800|1700|Bank|default|hoo,             !- Name
  {8fabe8cb-97c5-417b-9429-9a2b32d70c64}, !- Schedule Type Limits Name
  {67b7ca5b-8bb5-4f42-b1b8-e6e92e52f7b0}, !- Default Day Schedule Name
  {a3ec1f8e-2197-4282-a31c-64616bb436e7}, !- Summer Design Day Schedule Name
  {5ca8faf5-c6dd-4622-b7b7-5bc28327b16b}; !- Winter Design Day Schedule Name

OS:Schedule:Day,
  {67b7ca5b-8bb5-4f42-b1b8-e6e92e52f7b0}, !- Handle
  0800|1700|Bank|default|hoo Schedule Week Day, !- Name
  {8fabe8cb-97c5-417b-9429-9a2b32d70c64}, !- Schedule Type Limits Name
  ,                                       !- Interpolate to Timestep
  8,                                      !- Hour 1
  0,                                      !- Minute 1
  0,                                      !- Value Until Time 1
  17,                                     !- Hour 2
  0,                                      !- Minute 2
  1,                                      !- Value Until Time 2
  24,                                     !- Hour 3
  0,                                      !- Minute 3
  0;                                      !- Value Until Time 3

OS:Schedule:Day,
  {3759aff2-a27a-44f4-8c55-8c913dccf6fc}, !- Handle
  Schedule Day 2,                         !- Name
  ,                                       !- Schedule Type Limits Name
  ,                                       !- Interpolate to Timestep
  24,                                     !- Hour 1
  0,                                      !- Minute 1
  0;                                      !- Value Until Time 1

OS:Schedule:Day,
  {5ca8faf5-c6dd-4622-b7b7-5bc28327b16b}, !- Handle
  0800|1700|Bank|default|hoo Winter Design Day, !- Name
  {8fabe8cb-97c5-417b-9429-9a2b32d70c64}, !- Schedule Type Limits Name
  ,                                       !- Interpolate to Timestep
  24,                                     !- Hour 1
  0,                                      !- Minute 1
  0;                                      !- Value Until Time 1

OS:Schedule:Day,
  {a67d5cbe-9729-420e-87bb-1211994bc9dd}, !- Handle
  Schedule Day 3,                         !- Name
  ,                                       !- Schedule Type Limits Name
  ,                                       !- Interpolate to Timestep
  24,                                     !- Hour 1
  0,                                      !- Minute 1
  0;                                      !- Value Until Time 1

OS:Schedule:Day,
  {a3ec1f8e-2197-4282-a31c-64616bb436e7}, !- Handle
  0800|1700|Bank|default|hoo Summer Design Day, !- Name
  {8fabe8cb-97c5-417b-9429-9a2b32d70c64}, !- Schedule Type Limits Name
  ,                                       !- Interpolate to Timestep
  24,                                     !- Hour 1
  0,                                      !- Minute 1
  1;                                      !- Value Until Time 1

OS:DefaultScheduleSet,
  {a56489c9-3cc8-4e9d-ac9c-3df33bc7296a}, !- Handle
  Building Hours of Operation,            !- Name
  {eb0168be-5cf0-43f4-a328-182ff0474937}, !- Hours of Operation Schedule Name
  ,                                       !- Number of People Schedule Name
  ,                                       !- People Activity Level Schedule Name
  ,                                       !- Lighting Schedule Name
  ,                                       !- Electric Equipment Schedule Name
  ,                                       !- Gas Equipment Schedule Name
  ,                                       !- Hot Water Equipment Schedule Name
  ,                                       !- Infiltration Schedule Name
  ,                                       !- Steam Equipment Schedule Name
  ;                                       !- Other Equipment Schedule Name

OS:ScheduleTypeLimits,
  {8fabe8cb-97c5-417b-9429-9a2b32d70c64}, !- Handle
  OnOff,                                  !- Name
  0,                                      !- Lower Limit Value {BasedOnField A4}
  1,                                      !- Upper Limit Value {BasedOnField A4}
  Discrete,                               !- Numeric Type
  Availability;                           !- Unit Type

OS:Schedule:Ruleset,
  {e87779da-9954-41fe-ad5c-38b75b56a288}, !- Handle
  0800|1700|Bank|default|activity,        !- Name
  {7f45f3ad-3527-4bd0-80a9-517a89214be8}, !- Schedule Type Limits Name
  {21754b0d-e27f-4de7-86d5-cb48ebdb620b}, !- Default Day Schedule Name
  {458f3460-83ad-46ae-886d-bda1446a0681}, !- Summer Design Day Schedule Name
  {46cd4838-9230-4020-9c6c-ce74a48eaecf}; !- Winter Design Day Schedule Name

OS:ScheduleTypeLimits,
  {7f45f3ad-3527-4bd0-80a9-517a89214be8}, !- Handle
  People Activity Type Limits,            !- Name
  0,                                      !- Lower Limit Value {BasedOnField A4}
  ,                                       !- Upper Limit Value {BasedOnField A4}
  Continuous,                             !- Numeric Type
  ActivityLevel;                          !- Unit Type

OS:Schedule:Day,
  {21754b0d-e27f-4de7-86d5-cb48ebdb620b}, !- Handle
  0800|1700|Bank|default|activity |default, !- Name
  {7f45f3ad-3527-4bd0-80a9-517a89214be8}, !- Schedule Type Limits Name
  ,                                       !- Interpolate to Timestep
  24,                                     !- Hour 1
  0,                                      !- Minute 1
  120;                                    !- Value Until Time 1

OS:Schedule:Day,
  {458f3460-83ad-46ae-886d-bda1446a0681}, !- Handle
  0800|1700|Bank|default|activity Summer Design Day, !- Name
  {7f45f3ad-3527-4bd0-80a9-517a89214be8}, !- Schedule Type Limits Name
  ,                                       !- Interpolate to Timestep
  24,                                     !- Hour 1
  0,                                      !- Minute 1
  120;                                    !- Value Until Time 1

OS:Schedule:Day,
  {46cd4838-9230-4020-9c6c-ce74a48eaecf}, !- Handle
  0800|1700|Bank|default|activity Winter Design Day, !- Name
  {7f45f3ad-3527-4bd0-80a9-517a89214be8}, !- Schedule Type Limits Name
  ,                                       !- Interpolate to Timestep
  24,                                     !- Hour 1
  0,                                      !- Minute 1
  120;                                    !- Value Until Time 1

OS:Schedule:Ruleset,
  {d0d6f9df-4612-46e8-9b11-84b37c57d9ea}, !- Handle
  0800|1700|Bank|default|elec_equip,      !- Name
  {5bfa3679-9d76-468c-aa45-c1ead4fa9aad}, !- Schedule Type Limits Name
  {1a292c05-e888-418e-bcaa-792d3e383327}, !- Default Day Schedule Name
  {19c6a893-dece-4b68-94b2-f650008c6975}, !- Summer Design Day Schedule Name
  {b33842f5-2d2f-4c90-9350-f32094f86a37}; !- Winter Design Day Schedule Name

OS:ScheduleTypeLimits,
  {5bfa3679-9d76-468c-aa45-c1ead4fa9aad}, !- Handle
  Equipment Schedule Type Limits,         !- Name
  0,                                      !- Lower Limit Value {BasedOnField A4}
  1,                                      !- Upper Limit Value {BasedOnField A4}
  Continuous,                             !- Numeric Type
  Dimensionless;                          !- Unit Type

OS:Schedule:Day,
  {1a292c05-e888-418e-bcaa-792d3e383327}, !- Handle
  0800|1700|Bank|default|elec_equip |default, !- Name
  {5bfa3679-9d76-468c-aa45-c1ead4fa9aad}, !- Schedule Type Limits Name
  ,                                       !- Interpolate to Timestep
  8,                                      !- Hour 1
  0,                                      !- Minute 1
  0.4,                                    !- Value Until Time 1
  12,                                     !- Hour 2
  0,                                      !- Minute 2
  0.9,                                    !- Value Until Time 2
  13,                                     !- Hour 3
  0,                                      !- Minute 3
  0.8,                                    !- Value Until Time 3
  16,                                     !- Hour 4
  0,                                      !- Minute 4
  0.9,                                    !- Value Until Time 4
  16,                                     !- Hour 5
  30,                                     !- Minute 5
  0.8,                                    !- Value Until Time 5
  17,                                     !- Hour 6
  0,                                      !- Minute 6
  0.7,                                    !- Value Until Time 6
  17,                                     !- Hour 7
  30,                                     !- Minute 7
  0.6,                                    !- Value Until Time 7
  18,                                     !- Hour 8
  0,                                      !- Minute 8
  0.5,                                    !- Value Until Time 8
  18,                                     !- Hour 9
  30,                                     !- Minute 9
  0.49,                                   !- Value Until Time 9
  19,                                     !- Hour 10
  0,                                      !- Minute 10
  0.48,                                   !- Value Until Time 10
  19,                                     !- Hour 11
  30,                                     !- Minute 11
  0.47,                                   !- Value Until Time 11
  20,                                     !- Hour 12
  0,                                      !- Minute 12
  0.46,                                   !- Value Until Time 12
  20,                                     !- Hour 13
  30,                                     !- Minute 13
  0.45,                                   !- Value Until Time 13
  21,                                     !- Hour 14
  0,                                      !- Minute 14
  0.44,                                   !- Value Until Time 14
  21,                                     !- Hour 15
  30,                                     !- Minute 15
  0.43,                                   !- Value Until Time 15
  22,                                     !- Hour 16
  0,                                      !- Minute 16
  0.42,                                   !- Value Until Time 16
  22,                                     !- Hour 17
  30,                                     !- Minute 17
  0.41,                                   !- Value Until Time 17
  24,                                     !- Hour 18
  0,                                      !- Minute 18
  0.4;                                    !- Value Until Time 18

OS:Schedule:Day,
  {19c6a893-dece-4b68-94b2-f650008c6975}, !- Handle
  0800|1700|Bank|default|elec_equip Summer Design Day, !- Name
  {5bfa3679-9d76-468c-aa45-c1ead4fa9aad}, !- Schedule Type Limits Name
  ,                                       !- Interpolate to Timestep
  24,                                     !- Hour 1
  0,                                      !- Minute 1
  1;                                      !- Value Until Time 1

OS:Schedule:Day,
  {b33842f5-2d2f-4c90-9350-f32094f86a37}, !- Handle
  0800|1700|Bank|default|elec_equip Winter Design Day, !- Name
  {5bfa3679-9d76-468c-aa45-c1ead4fa9aad}, !- Schedule Type Limits Name
  ,                                       !- Interpolate to Timestep
  24,                                     !- Hour 1
  0,                                      !- Minute 1
  0.4;                                    !- Value Until Time 1

OS:Schedule:Rule,
  {f1068128-0005-41ef-8c8e-c34d081fe781}, !- Handle
  0800|1700|Bank|default|elec_equip |1/1-12/31|Sun Rule, !- Name
  {d0d6f9df-4612-46e8-9b11-84b37c57d9ea}, !- Schedule Ruleset Name
  0,                                      !- Rule Order
  {30908429-0612-4e36-8240-292c99a6436a}, !- Day Schedule Name
  Yes,                                    !- Apply Sunday
  ,                                       !- Apply Monday
  ,                                       !- Apply Tuesday
  ,                                       !- Apply Wednesday
  ,                                       !- Apply Thursday
  ,                                       !- Apply Friday
  ,                                       !- Apply Saturday
  ,                                       !- Apply Holiday
  DateRange,                              !- Date Specification Type
  1,                                      !- Start Month
  1,                                      !- Start Day
  12,                                     !- End Month
  31;                                     !- End Day

OS:Schedule:Day,
  {30908429-0612-4e36-8240-292c99a6436a}, !- Handle
  0800|1700|Bank|default|elec_equip |1/1-12/31|Sun, !- Name
  {5bfa3679-9d76-468c-aa45-c1ead4fa9aad}, !- Schedule Type Limits Name
  ,                                       !- Interpolate to Timestep
  24,                                     !- Hour 1
  0,                                      !- Minute 1
  0.3;                                    !- Value Until Time 1

OS:Schedule:Rule,
  {4970b374-d22d-4f5e-bd29-71de8f5b6883}, !- Handle
  0800|1700|Bank|default|elec_equip |1/1-12/31|Sat Rule, !- Name
  {d0d6f9df-4612-46e8-9b11-84b37c57d9ea}, !- Schedule Ruleset Name
  1,                                      !- Rule Order
  {9fd29a7f-95b6-40d6-b63e-98f9760fcb92}, !- Day Schedule Name
  ,                                       !- Apply Sunday
  ,                                       !- Apply Monday
  ,                                       !- Apply Tuesday
  ,                                       !- Apply Wednesday
  ,                                       !- Apply Thursday
  ,                                       !- Apply Friday
  Yes,                                    !- Apply Saturday
  ,                                       !- Apply Holiday
  DateRange,                              !- Date Specification Type
  1,                                      !- Start Month
  1,                                      !- Start Day
  12,                                     !- End Month
  31;                                     !- End Day

OS:Schedule:Day,
  {9fd29a7f-95b6-40d6-b63e-98f9760fcb92}, !- Handle
  0800|1700|Bank|default|elec_equip |1/1-12/31|Sat, !- Name
  {5bfa3679-9d76-468c-aa45-c1ead4fa9aad}, !- Schedule Type Limits Name
  ,                                       !- Interpolate to Timestep
  5,                                      !- Hour 1
  0,                                      !- Minute 1
  0.3,                                    !- Value Until Time 1
  5,                                      !- Hour 2
  30,                                     !- Minute 2
  0.33,                                   !- Value Until Time 2
  6,                                      !- Hour 3
  0,                                      !- Minute 3
  0.37,                                   !- Value Until Time 3
  6,                                      !- Hour 4
  30,                                     !- Minute 4
  0.4,                                    !- Value Until Time 4
  7,                                      !- Hour 5
  0,                                      !- Minute 5
  0.43,                                   !- Value Until Time 5
  7,                                      !- Hour 6
  30,                                     !- Minute 6
  0.47,                                   !- Value Until Time 6
  13,                                     !- Hour 7
  0,                                      !- Minute 7
  0.5,                                    !- Value Until Time 7
  13,                                     !- Hour 8
  30,                                     !- Minute 8
  0.48,                                   !- Value Until Time 8
  14,                                     !- Hour 9
  0,                                      !- Minute 9
  0.46,                                   !- Value Until Time 9
  14,                                     !- Hour 10
  30,                                     !- Minute 10
  0.44,                                   !- Value Until Time 10
  15,                                     !- Hour 11
  0,                                      !- Minute 11
  0.42,                                   !- Value Until Time 11
  15,                                     !- Hour 12
  30,                                     !- Minute 12
  0.4,                                    !- Value Until Time 12
  16,                                     !- Hour 13
  0,                                      !- Minute 13
  0.38,                                   !- Value Until Time 13
  16,                                     !- Hour 14
  30,                                     !- Minute 14
  0.36,                                   !- Value Until Time 14
  17,                                     !- Hour 15
  0,                                      !- Minute 15
  0.34,                                   !- Value Until Time 15
  17,                                     !- Hour 16
  30,                                     !- Minute 16
  0.32,                                   !- Value Until Time 16
  24,                                     !- Hour 17
  0,                                      !- Minute 17
  0.3;                                    !- Value Until Time 17

OS:Schedule:Ruleset,
  {c8d0ca2a-fd33-412c-bf73-a92d76667e3a}, !- Handle
  0800|1700|Bank|default|thermal_ctrl,    !- Name
  {0a25a096-a473-486a-9c6c-2cdb348905d0}, !- Schedule Type Limits Name
  {84384735-be4c-467b-842c-86585434ef10}, !- Default Day Schedule Name
  {e22a2d7e-7cd0-4f47-97b7-7b792c6b34de}, !- Summer Design Day Schedule Name
  {2b43bc3a-6d14-456c-b1a4-e4ce4d7b299e}; !- Winter Design Day Schedule Name

OS:ScheduleTypeLimits,
  {0a25a096-a473-486a-9c6c-2cdb348905d0}, !- Handle
  Dimensionless Schedule Type Limits,     !- Name
  ,                                       !- Lower Limit Value {BasedOnField A4}
  ,                                       !- Upper Limit Value {BasedOnField A4}
  Continuous,                             !- Numeric Type
  Dimensionless;                          !- Unit Type

OS:Schedule:Day,
  {84384735-be4c-467b-842c-86585434ef10}, !- Handle
  0800|1700|Bank|default|thermal_ctrl |default, !- Name
  {0a25a096-a473-486a-9c6c-2cdb348905d0}, !- Schedule Type Limits Name
  ,                                       !- Interpolate to Timestep
  24,                                     !- Hour 1
  0,                                      !- Minute 1
  4;                                      !- Value Until Time 1

OS:Schedule:Day,
  {e22a2d7e-7cd0-4f47-97b7-7b792c6b34de}, !- Handle
  0800|1700|Bank|default|thermal_ctrl Summer Design Day, !- Name
  {0a25a096-a473-486a-9c6c-2cdb348905d0}, !- Schedule Type Limits Name
  ,                                       !- Interpolate to Timestep
  24,                                     !- Hour 1
  0,                                      !- Minute 1
  4;                                      !- Value Until Time 1

OS:Schedule:Day,
  {2b43bc3a-6d14-456c-b1a4-e4ce4d7b299e}, !- Handle
  0800|1700|Bank|default|thermal_ctrl Winter Design Day, !- Name
  {0a25a096-a473-486a-9c6c-2cdb348905d0}, !- Schedule Type Limits Name
  ,                                       !- Interpolate to Timestep
  24,                                     !- Hour 1
  0,                                      !- Minute 1
  4;                                      !- Value Until Time 1

OS:Schedule:Ruleset,
  {1b128c46-1af2-4ff2-b4d3-c987b37fa8fe}, !- Handle
  0800|1700|Bank|default|clothing,        !- Name
  {0a25a096-a473-486a-9c6c-2cdb348905d0}, !- Schedule Type Limits Name
  {4108d0ff-a8ca-45b1-a949-38eb5a97b43d}, !- Default Day Schedule Name
  {df625813-fa7b-400c-80d8-cbd92ee6536b}, !- Summer Design Day Schedule Name
  {139d546b-54cc-4a44-a84d-6bfe71be5c6f}; !- Winter Design Day Schedule Name

OS:Schedule:Day,
  {4108d0ff-a8ca-45b1-a949-38eb5a97b43d}, !- Handle
  0800|1700|Bank|default|clothing |default, !- Name
  {0a25a096-a473-486a-9c6c-2cdb348905d0}, !- Schedule Type Limits Name
  ,                                       !- Interpolate to Timestep
  24,                                     !- Hour 1
  0,                                      !- Minute 1
  0.9;                                    !- Value Until Time 1

OS:Schedule:Day,
  {df625813-fa7b-400c-80d8-cbd92ee6536b}, !- Handle
  0800|1700|Bank|default|clothing Summer Design Day, !- Name
  {0a25a096-a473-486a-9c6c-2cdb348905d0}, !- Schedule Type Limits Name
  ,                                       !- Interpolate to Timestep
  24,                                     !- Hour 1
  0,                                      !- Minute 1
  0.9;                                    !- Value Until Time 1

OS:Schedule:Day,
  {139d546b-54cc-4a44-a84d-6bfe71be5c6f}, !- Handle
  0800|1700|Bank|default|clothing Winter Design Day, !- Name
  {0a25a096-a473-486a-9c6c-2cdb348905d0}, !- Schedule Type Limits Name
  ,                                       !- Interpolate to Timestep
  24,                                     !- Hour 1
  0,                                      !- Minute 1
  0.9;                                    !- Value Until Time 1

OS:Schedule:Rule,
  {edddbd7d-dbce-4ac9-b336-991c56a0f7f4}, !- Handle
  0800|1700|Bank|default|clothing |7/1-9/30|Mon/Tue/Wed/Thu/Fri/Sat/Sun Rule, !- Name
  {1b128c46-1af2-4ff2-b4d3-c987b37fa8fe}, !- Schedule Ruleset Name
  0,                                      !- Rule Order
  {1bcf9d49-7367-4ac2-8f15-f4dfbeac35b6}, !- Day Schedule Name
  Yes,                                    !- Apply Sunday
  Yes,                                    !- Apply Monday
  Yes,                                    !- Apply Tuesday
  Yes,                                    !- Apply Wednesday
  Yes,                                    !- Apply Thursday
  Yes,                                    !- Apply Friday
  Yes,                                    !- Apply Saturday
  ,                                       !- Apply Holiday
  DateRange,                              !- Date Specification Type