
OS:Version,
  {d25f7c11-f829-4f0f-9efc-a84b0b1427e3}, !- Handle
  1.6.0;                                  !- Version Identifier

OS:ClimateZones,
  {135edfab-17e7-40db-a436-27d385a8cd6d}, !- Handle
  ,                                       !- Active Institution
  ,                                       !- Active Year
  ASHRAE,                                 !- Climate Zone Institution Name 1
  ANSI/ASHRAE Standard 169,               !- Climate Zone Document Name 1
  2006,                                   !- Climate Zone Document Year 1
  ,                                       !- Climate Zone Value 1
  CEC,                                    !- Climate Zone Institution Name 2
  California Climate Zone Descriptions,   !- Climate Zone Document Name 2
  1995,                                   !- Climate Zone Document Year 2
  ;                                       !- Climate Zone Value 2

OS:YearDescription,
  {513d8dda-86cb-442a-b01c-1f7f0e0ac70e}; !- Handle

OS:RadianceParameters,
  {270a96f1-3c86-4b75-a667-cdf22790e2c8}, !- Handle
  1,                                      !- Accumulated Rays per Record
  0,                                      !- Direct Threshold
  1,                                      !- Direct Certainty
  1,                                      !- Direct Jitter
  1,                                      !- Direct Pretest
  6,                                      !- Ambient Bounces VMX
  2,                                      !- Ambient Bounces DMX
  4050,                                   !- Ambient Divisions VMX
  512,                                    !- Ambient Divisions DMX
  256,                                    !- Ambient Supersamples
  0.001,                                  !- Limit Weight VMX
  0.001,                                  !- Limit Weight DMX
  500,                                    !- Klems Sampling Density
  146;                                    !- Sky Discretization Resolution

OS:SimulationControl,
  {2c487a4c-bac9-4ac5-b669-1e49d9da7c2b}, !- Handle
  ,                                       !- Do Zone Sizing Calculation
  ,                                       !- Do System Sizing Calculation
  ,                                       !- Do Plant Sizing Calculation
  No,                                     !- Run Simulation for Sizing Periods
  ,                                       !- Run Simulation for Weather File Run Periods
  0.04,                                   !- Loads Convergence Tolerance Value
  ,                                       !- Temperature Convergence Tolerance Value {deltaC}
  ,                                       !- Solar Distribution
  ,                                       !- Maximum Number of Warmup Days
  2;                                      !- Minimum Number of Warmup Days

OS:Sizing:Parameters,
  {dde5af6f-7923-4600-a28a-7556673a0266}, !- Handle
  1.25,                                   !- Heating Sizing Factor
  1.15;                                   !- Cooling Sizing Factor

OS:ProgramControl,
  {05027a99-f2b3-4aeb-afc6-1425fbb4371d}; !- Handle

OS:Timestep,
  {4ebc9f1e-4707-402e-9844-67eb1ffbd522}, !- Handle
  2;                                      !- Number of Timesteps per Hour

OS:OutputControl:ReportingTolerances,
  {65797aa2-06a9-45fe-b69d-bc6e060399d3}; !- Handle

OS:ConvergenceLimits,
  {9fc11aba-8822-4f3d-970c-46391ba4040d}; !- Handle

OS:ShadowCalculation,
  {ca758bea-4416-4626-9bba-3d8795c79bd6}, !- Handle
  7,                                      !- Calculation Frequency
  15000;                                  !- Maximum Figures in Shadow Overlap Calculations

OS:SurfaceConvectionAlgorithm:Inside,
  {aaabfc36-718a-4ab0-b622-f186ebb45230}, !- Handle
  TARP;                                   !- Algorithm

OS:SurfaceConvectionAlgorithm:Outside,
  {9a0a9f6f-4bbd-4b12-a121-9492a1fcd7d6}, !- Handle
  DOE-2;                                  !- Algorithm

OS:HeatBalanceAlgorithm,
  {9d93e563-e1e0-46d7-9e39-d1c8aceb7212}, !- Handle
  ConductionTransferFunction,             !- Algorithm
  200;                                    !- Surface Temperature Upper Limit {F}

OS:ZoneAirHeatBalanceAlgorithm,
  {8520d93e-310f-4696-9bcd-36228bfdd743}, !- Handle
  AnalyticalSolution;                     !- Algorithm

OS:ZoneAirContaminantBalance,
  {eb5fc3ae-fb22-4160-8fcb-3e3b22b000d3}; !- Handle

OS:ZoneCapacitanceMultiplier:ResearchSpecial,
  {4020ce4f-5a7a-4849-8028-8305d7b751b1}, !- Handle
  ,                                       !- Temperature Capacity Multiplier
  ,                                       !- Humidity Capacity Multiplier
  ;                                       !- Carbon Dioxide Capacity Multiplier

OS:RunPeriod,
  {28df894d-6af9-4fb8-8f56-df1753344aa3}, !- Handle
  Run Period 1,                           !- Name
  1,                                      !- Begin Month
  1,                                      !- Begin Day of Month
  12,                                     !- End Month
  31,                                     !- End Day of Month
  ,                                       !- Use Weather File Holidays and Special Days
  ,                                       !- Use Weather File Daylight Saving Period
  ,                                       !- Apply Weekend Holiday Rule
  ,                                       !- Use Weather File Rain Indicators
  ,                                       !- Use Weather File Snow Indicators
  ;                                       !- Number of Times Runperiod to be Repeated

OS:Building,
  {bf305633-c5a1-4881-9edf-ca5e1a8e1274}, !- Handle
  Building 1,                             !- Name
  ,                                       !- Building Sector Type
  ,                                       !- North Axis {deg}
  ,                                       !- Nominal Floor to Floor Height {m}
  ,                                       !- Space Type Name
  ,                                       !- Default Construction Set Name
  {a45bba13-5f98-4739-8aea-5b6bd9264dc1}; !- Default Schedule Set Name

OS:LifeCycleCost:Parameters,
  {231cf8a0-f0e7-4251-a99f-11f0d464e661}, !- Handle
  FEMP,                                   !- Analysis Type
  ,                                       !- Discounting Convention
  ,                                       !- Inflation Approach
  ,                                       !- Real Discount Rate
  ,                                       !- Nominal Discount Rate
  ,                                       !- Inflation
  ,                                       !- Base Date Month
  ,                                       !- Base Date Year
  ,                                       !- Service Date Month
  ,                                       !- Service Date Year
  ,                                       !- Length of Study Period in Years
  ,                                       !- Tax Rate
  ,                                       !- Depreciation Method
  Yes;                                    !- Use NIST Fuel Escalation Rates

OS:Facility,
  {3ba8e45b-b833-44eb-a723-ea6c3946dc96}; !- Handle

OS:SpaceType,
  {32b8b4b6-0b18-4842-a5ad-dd1d21dcbbc3}, !- Handle
  Bank|BlendFront|DOE Ref 2004|ASHRAE 169-2006-5A, !- Name
  {5e464c82-75c8-4eec-9eb5-e6015236dd1b}, !- Default Construction Set Name
  ,                                       !- Default Schedule Set Name
  {932b685f-cf55-4a74-9acc-54a968411bce}, !- Group Rendering Name
  {264e446d-438f-4644-bec3-423b5af3dbad}, !- Design Specification Outdoor Air Object Name
  Bank,                                   !- Standards Building Type
  BlendFront;                             !- Standards Space Type

OS:Rendering:Color,
  {932b685f-cf55-4a74-9acc-54a968411bce}, !- Handle
  Rendering Color 1,                      !- Name
  230,                                    !- Rendering Red Value
  157,                                    !- Rendering Green Value
  120;                                    !- Rendering Blue Value

OS:Schedule:Ruleset,
  {1c57824d-94c1-4fa1-aa2b-25070b3d5eb0}, !- Handle
  0800|1700|Bank|default|hoo,             !- Name
  {ddea748a-891f-4606-811f-a1fa44691de9}, !- Schedule Type Limits Name
  {05c56fb1-cf3a-4cdd-b20c-a5fd57f789e8}, !- Default Day Schedule Name
  {f17fc1bd-5091-4599-a938-59f15d1d2f52}, !- Summer Design Day Schedule Name
  {d410f23f-2c27-4816-a868-10bd3fefb61b}; !- Winter Design Day Schedule Name

OS:Schedule:Day,
  {05c56fb1-cf3a-4cdd-b20c-a5fd57f789e8}, !- Handle
  0800|1700|Bank|default|hoo Schedule Week Day, !- Name
  {ddea748a-891f-4606-811f-a1fa44691de9}, !- Schedule Type Limits Name
  ,                                       !- Interpolate to Timestep
  8,                                      !- Hour 1
  0,                                      !- Minute 1
  0,                                      !- Value Until Time 1
  17,                                     !- Hour 2
  0,                                      !- Minute 2
  1,                                      !- Value Until Time 2
  24,                                     !- Hour 3
  0,                                      !- Minute 3
  0;                                      !- Value Until Time 3

OS:Schedule:Day,
  {bf7482bb-3dfb-4ef8-9399-86d8d060c504}, !- Handle
  Schedule Day 2,                         !- Name
  ,                                       !- Schedule Type Limits Name
  ,                                       !- Interpolate to Timestep
  24,                                     !- Hour 1
  0,                                      !- Minute 1
  0;                                      !- Value Until Time 1

OS:Schedule:Day,
  {d410f23f-2c27-4816-a868-10bd3fefb61b}, !- Handle
  0800|1700|Bank|default|hoo Winter Design Day, !- Name
  {ddea748a-891f-4606-811f-a1fa44691de9}, !- Schedule Type Limits Name
  ,                                       !- Interpolate to Timestep
  24,                                     !- Hour 1
  0,                                      !- Minute 1
  0;                                      !- Value Until Time 1

OS:Schedule:Day,
  {6206f28c-54f4-4911-b8ba-c22bbb588e19}, !- Handle
  Schedule Day 3,                         !- Name
  ,                                       !- Schedule Type Limits Name
  ,                                       !- Interpolate to Timestep
  24,                                     !- Hour 1
  0,                                      !- Minute 1
  0;                                      !- Value Until Time 1

OS:Schedule:Day,
  {f17fc1bd-5091-4599-a938-59f15d1d2f52}, !- Handle
  0800|1700|Bank|default|hoo Summer Design Day, !- Name
  {ddea748a-891f-4606-811f-a1fa44691de9}, !- Schedule Type Limits Name
  ,                                       !- Interpolate to Timestep
  24,                                     !- Hour 1
  0,                                      !- Minute 1
  1;                                      !- Value Until Time 1

OS:DefaultScheduleSet,
  {a45bba13-5f98-4739-8aea-5b6bd9264dc1}, !- Handle
  Building Hours of Operation,            !- Name
  {1c57824d-94c1-4fa1-aa2b-25070b3d5eb0}, !- Hours of Operation Schedule Name
  ,                                       !- Number of People Schedule Name
  ,                                       !- People Activity Level Schedule Name
  ,                                       !- Lighting Schedule Name
  ,                                       !- Electric Equipment Schedule Name
  ,                                       !- Gas Equipment Schedule Name
  ,                                       !- Hot Water Equipment Schedule Name
  ,                                       !- Infiltration Schedule Name
  ,                                       !- Steam Equipment Schedule Name
  ;                                       !- Other Equipment Schedule Name

OS:ScheduleTypeLimits,
  {ddea748a-891f-4606-811f-a1fa44691de9}, !- Handle
  OnOff,                                  !- Name
  0,                                      !- Lower Limit Value {BasedOnField A4}
  1,                                      !- Upper Limit Value {BasedOnField A4}
  Discrete,                               !- Numeric Type
  Availability;                           !- Unit Type

OS:Schedule:Ruleset,
  {3bba8ab2-3a55-4f46-a164-be4481c7e050}, !- Handle
  0800|1700|Bank|default|activity,        !- Name
  {69a11f7e-76db-4cab-920e-cd2198e8d367}, !- Schedule Type Limits Name
  {be3967ff-9930-46cb-a1e1-11310951c0de}, !- Default Day Schedule Name
  {9eef49dd-5455-4f04-8244-09b8e58e6620}, !- Summer Design Day Schedule Name
  {a7667f68-a875-458e-a727-776436172a10}; !- Winter Design Day Schedule Name

OS:ScheduleTypeLimits,
  {69a11f7e-76db-4cab-920e-cd2198e8d367}, !- Handle
  People Activity Type Limits,            !- Name
  0,                                      !- Lower Limit Value {BasedOnField A4}
  ,                                       !- Upper Limit Value {BasedOnField A4}
  Continuous,                             !- Numeric Type
  ActivityLevel;                          !- Unit Type

OS:Schedule:Day,
  {be3967ff-9930-46cb-a1e1-11310951c0de}, !- Handle
  0800|1700|Bank|default|activity |default, !- Name
  {69a11f7e-76db-4cab-920e-cd2198e8d367}, !- Schedule Type Limits Name
  ,                                       !- Interpolate to Timestep
  24,                                     !- Hour 1
  0,                                      !- Minute 1
  120;                                    !- Value Until Time 1

OS:Schedule:Day,
  {9eef49dd-5455-4f04-8244-09b8e58e6620}, !- Handle
  0800|1700|Bank|default|activity Summer Design Day, !- Name
  {69a11f7e-76db-4cab-920e-cd2198e8d367}, !- Schedule Type Limits Name
  ,                                       !- Interpolate to Timestep
  24,                                     !- Hour 1
  0,                                      !- Minute 1
  120;                                    !- Value Until Time 1

OS:Schedule:Day,
  {a7667f68-a875-458e-a727-776436172a10}, !- Handle
  0800|1700|Bank|default|activity Winter Design Day, !- Name
  {69a11f7e-76db-4cab-920e-cd2198e8d367}, !- Schedule Type Limits Name
  ,                                       !- Interpolate to Timestep
  24,                                     !- Hour 1
  0,                                      !- Minute 1
  120;                                    !- Value Until Time 1

OS:Schedule:Ruleset,
  {8ddfcbc5-3fce-46c8-9e8e-2f009e84c3a9}, !- Handle
  0800|1700|Bank|default|elec_equip,      !- Name
  {da73522a-de7d-4455-9318-5e7681e8153b}, !- Schedule Type Limits Name
  {4bad773a-f220-4ccb-9d92-97a5626ef9cf}, !- Default Day Schedule Name
  {ba8eb42b-ac13-42c2-8231-dfcda96351d7}, !- Summer Design Day Schedule Name
  {f3718665-4d44-425f-b698-260916257acd}; !- Winter Design Day Schedule Name

OS:ScheduleTypeLimits,
  {da73522a-de7d-4455-9318-5e7681e8153b}, !- Handle
  Equipment Schedule Type Limits,         !- Name
  0,                                      !- Lower Limit Value {BasedOnField A4}
  1,                                      !- Upper Limit Value {BasedOnField A4}
  Continuous,                             !- Numeric Type
  Dimensionless;                          !- Unit Type

OS:Schedule:Day,
  {4bad773a-f220-4ccb-9d92-97a5626ef9cf}, !- Handle
  0800|1700|Bank|default|elec_equip |default, !- Name
  {da73522a-de7d-4455-9318-5e7681e8153b}, !- Schedule Type Limits Name
  ,                                       !- Interpolate to Timestep
  8,                                      !- Hour 1
  0,                                      !- Minute 1
  0.4,                                    !- Value Until Time 1
  12,                                     !- Hour 2
  0,                                      !- Minute 2
  0.9,                                    !- Value Until Time 2
  13,                                     !- Hour 3
  0,                                      !- Minute 3
  0.8,                                    !- Value Until Time 3
  16,                                     !- Hour 4
  0,                                      !- Minute 4
  0.9,                                    !- Value Until Time 4
  16,                                     !- Hour 5
  30,                                     !- Minute 5
  0.8,                                    !- Value Until Time 5
  17,                                     !- Hour 6
  0,                                      !- Minute 6
  0.7,                                    !- Value Until Time 6
  17,                                     !- Hour 7
  30,                                     !- Minute 7
  0.6,                                    !- Value Until Time 7
  18,                                     !- Hour 8
  0,                                      !- Minute 8
  0.5,                                    !- Value Until Time 8
  18,                                     !- Hour 9
  30,                                     !- Minute 9
  0.49,                                   !- Value Until Time 9
  19,                                     !- Hour 10
  0,                                      !- Minute 10
  0.48,                                   !- Value Until Time 10
  19,                                     !- Hour 11
  30,                                     !- Minute 11
  0.47,                                   !- Value Until Time 11
  20,                                     !- Hour 12
  0,                                      !- Minute 12
  0.46,                                   !- Value Until Time 12
  20,                                     !- Hour 13
  30,                                     !- Minute 13
  0.45,                                   !- Value Until Time 13
  21,                                     !- Hour 14
  0,                                      !- Minute 14
  0.44,                                   !- Value Until Time 14
  21,                                     !- Hour 15
  30,                                     !- Minute 15
  0.43,                                   !- Value Until Time 15
  22,                                     !- Hour 16
  0,                                      !- Minute 16
  0.42,                                   !- Value Until Time 16
  22,                                     !- Hour 17
  30,                                     !- Minute 17
  0.41,                                   !- Value Until Time 17
  24,                                     !- Hour 18
  0,                                      !- Minute 18
  0.4;                                    !- Value Until Time 18

OS:Schedule:Day,
  {ba8eb42b-ac13-42c2-8231-dfcda96351d7}, !- Handle
  0800|1700|Bank|default|elec_equip Summer Design Day, !- Name
  {da73522a-de7d-4455-9318-5e7681e8153b}, !- Schedule Type Limits Name
  ,                                       !- Interpolate to Timestep
  24,                                     !- Hour 1
  0,                                      !- Minute 1
  1;                                      !- Value Until Time 1

OS:Schedule:Day,
  {f3718665-4d44-425f-b698-260916257acd}, !- Handle
  0800|1700|Bank|default|elec_equip Winter Design Day, !- Name
  {da73522a-de7d-4455-9318-5e7681e8153b}, !- Schedule Type Limits Name
  ,                                       !- Interpolate to Timestep
  24,                                     !- Hour 1
  0,                                      !- Minute 1
  0.4;                                    !- Value Until Time 1

OS:Schedule:Rule,
  {10bddd8c-26e8-4d47-96ae-dde95fa3f068}, !- Handle
  0800|1700|Bank|default|elec_equip |1/1-12/31|Sun Rule, !- Name
  {8ddfcbc5-3fce-46c8-9e8e-2f009e84c3a9}, !- Schedule Ruleset Name
  0,                                      !- Rule Order
  {53a00e86-2870-41ca-9d9a-b81071786eeb}, !- Day Schedule Name
  Yes,                                    !- Apply Sunday
  ,                                       !- Apply Monday
  ,                                       !- Apply Tuesday
  ,                                       !- Apply Wednesday
  ,                                       !- Apply Thursday
  ,                                       !- Apply Friday
  ,                                       !- Apply Saturday
  ,                                       !- Apply Holiday
  DateRange,                              !- Date Specification Type
  1,                                      !- Start Month
  1,                                      !- Start Day
  12,                                     !- End Month
  31;                                     !- End Day

OS:Schedule:Day,
  {53a00e86-2870-41ca-9d9a-b81071786eeb}, !- Handle
  0800|1700|Bank|default|elec_equip |1/1-12/31|Sun, !- Name
  {da73522a-de7d-4455-9318-5e7681e8153b}, !- Schedule Type Limits Name
  ,                                       !- Interpolate to Timestep
  24,                                     !- Hour 1
  0,                                      !- Minute 1
  0.3;                                    !- Value Until Time 1

OS:Schedule:Rule,
  {4ee15759-69c1-4317-b61c-27b56b1b6305}, !- Handle
  0800|1700|Bank|default|elec_equip |1/1-12/31|Sat Rule, !- Name
  {8ddfcbc5-3fce-46c8-9e8e-2f009e84c3a9}, !- Schedule Ruleset Name
  1,                                      !- Rule Order
  {3a2f07c6-dc44-46a2-8c35-2641f89b5971}, !- Day Schedule Name
  ,                                       !- Apply Sunday
  ,                                       !- Apply Monday
  ,                                       !- Apply Tuesday
  ,                                       !- Apply Wednesday
  ,                                       !- Apply Thursday
  ,                                       !- Apply Friday
  Yes,                                    !- Apply Saturday
  ,                                       !- Apply Holiday
  DateRange,                              !- Date Specification Type
  1,                                      !- Start Month
  1,                                      !- Start Day
  12,                                     !- End Month
  31;                                     !- End Day

OS:Schedule:Day,
  {3a2f07c6-dc44-46a2-8c35-2641f89b5971}, !- Handle
  0800|1700|Bank|default|elec_equip |1/1-12/31|Sat, !- Name
  {da73522a-de7d-4455-9318-5e7681e8153b}, !- Schedule Type Limits Name
  ,                                       !- Interpolate to Timestep
  5,                                      !- Hour 1
  0,                                      !- Minute 1
  0.3,                                    !- Value Until Time 1
  5,                                      !- Hour 2
  30,                                     !- Minute 2
  0.33,                                   !- Value Until Time 2
  6,                                      !- Hour 3
  0,                                      !- Minute 3
  0.37,                                   !- Value Until Time 3
  6,                                      !- Hour 4
  30,                                     !- Minute 4
  0.4,                                    !- Value Until Time 4
  7,                                      !- Hour 5
  0,                                      !- Minute 5
  0.43,                                   !- Value Until Time 5
  7,                                      !- Hour 6
  30,                                     !- Minute 6
  0.47,                                   !- Value Until Time 6
  13,                                     !- Hour 7
  0,                                      !- Minute 7
  0.5,                                    !- Value Until Time 7
  13,                                     !- Hour 8
  30,                                     !- Minute 8
  0.48,                                   !- Value Until Time 8
  14,                                     !- Hour 9
  0,                                      !- Minute 9
  0.46,                                   !- Value Until Time 9
  14,                                     !- Hour 10
  30,                                     !- Minute 10
  0.44,                                   !- Value Until Time 10
  15,                                     !- Hour 11
  0,                                      !- Minute 11
  0.42,                                   !- Value Until Time 11
  15,                                     !- Hour 12
  30,                                     !- Minute 12
  0.4,                                    !- Value Until Time 12
  16,                                     !- Hour 13
  0,                                      !- Minute 13
  0.38,                                   !- Value Until Time 13
  16,                                     !- Hour 14
  30,                                     !- Minute 14
  0.36,                                   !- Value Until Time 14
  17,                                     !- Hour 15
  0,                                      !- Minute 15
  0.34,                                   !- Value Until Time 15
  17,                                     !- Hour 16
  30,                                     !- Minute 16
  0.32,                                   !- Value Until Time 16
  24,                                     !- Hour 17
  0,                                      !- Minute 17
  0.3;                                    !- Value Until Time 17

OS:Schedule:Ruleset,
  {c67af08f-3aee-4803-95e5-2940b8d1323a}, !- Handle
  0800|1700|Bank|default|thermal_ctrl,    !- Name
  {94fb7193-3eda-4a0c-a4c9-69693ee0a992}, !- Schedule Type Limits Name
  {82322751-a25e-48c2-984e-45de34bc0d45}, !- Default Day Schedule Name
  {137c7d93-5ad7-47ae-8dde-d6d01c0b6541}, !- Summer Design Day Schedule Name
  {1d0533be-6f74-4d8a-8b41-f3dbe92e2947}; !- Winter Design Day Schedule Name

OS:ScheduleTypeLimits,
  {94fb7193-3eda-4a0c-a4c9-69693ee0a992}, !- Handle
  Dimensionless Schedule Type Limits,     !- Name
  ,                                       !- Lower Limit Value {BasedOnField A4}
  ,                                       !- Upper Limit Value {BasedOnField A4}
  Continuous,                             !- Numeric Type
  Dimensionless;                          !- Unit Type

OS:Schedule:Day,
  {82322751-a25e-48c2-984e-45de34bc0d45}, !- Handle
  0800|1700|Bank|default|thermal_ctrl |default, !- Name
  {94fb7193-3eda-4a0c-a4c9-69693ee0a992}, !- Schedule Type Limits Name
  ,                                       !- Interpolate to Timestep
  24,                                     !- Hour 1
  0,                                      !- Minute 1
  4;                                      !- Value Until Time 1

OS:Schedule:Day,
  {137c7d93-5ad7-47ae-8dde-d6d01c0b6541}, !- Handle
  0800|1700|Bank|default|thermal_ctrl Summer Design Day, !- Name
  {94fb7193-3eda-4a0c-a4c9-69693ee0a992}, !- Schedule Type Limits Name
  ,                                       !- Interpolate to Timestep
  24,                                     !- Hour 1
  0,                                      !- Minute 1
  4;                                      !- Value Until Time 1

OS:Schedule:Day,
  {1d0533be-6f74-4d8a-8b41-f3dbe92e2947}, !- Handle
  0800|1700|Bank|default|thermal_ctrl Winter Design Day, !- Name
  {94fb7193-3eda-4a0c-a4c9-69693ee0a992}, !- Schedule Type Limits Name
  ,                                       !- Interpolate to Timestep
  24,                                     !- Hour 1
  0,                                      !- Minute 1
  4;                                      !- Value Until Time 1

OS:Schedule:Ruleset,
  {87911b56-5f5a-4397-bbd1-16c8150c7f94}, !- Handle
  0800|1700|Bank|default|clothing,        !- Name
  {94fb7193-3eda-4a0c-a4c9-69693ee0a992}, !- Schedule Type Limits Name
  {d7c35d36-ea93-4644-8d29-cf37523723d7}, !- Default Day Schedule Name
  {74a41582-d3fe-4e62-9354-322367b24922}, !- Summer Design Day Schedule Name
  {28430ef8-5a52-48cb-8587-0f520b176e48}; !- Winter Design Day Schedule Name

OS:Schedule:Day,
  {d7c35d36-ea93-4644-8d29-cf37523723d7}, !- Handle
  0800|1700|Bank|default|clothing |default, !- Name
  {94fb7193-3eda-4a0c-a4c9-69693ee0a992}, !- Schedule Type Limits Name
  ,                                       !- Interpolate to Timestep
  24,                                     !- Hour 1
  0,                                      !- Minute 1
  0.9;                                    !- Value Until Time 1

OS:Schedule:Day,
  {74a41582-d3fe-4e62-9354-322367b24922}, !- Handle
  0800|1700|Bank|default|clothing Summer Design Day, !- Name
  {94fb7193-3eda-4a0c-a4c9-69693ee0a992}, !- Schedule Type Limits Name
  ,                                       !- Interpolate to Timestep
  24,                                     !- Hour 1
  0,                                      !- Minute 1
  0.9;                                    !- Value Until Time 1

OS:Schedule:Day,
  {28430ef8-5a52-48cb-8587-0f520b176e48}, !- Handle
  0800|1700|Bank|default|clothing Winter Design Day, !- Name
  {94fb7193-3eda-4a0c-a4c9-69693ee0a992}, !- Schedule Type Limits Name
  ,                                       !- Interpolate to Timestep
  24,                                     !- Hour 1
  0,                                      !- Minute 1
  0.9;                                    !- Value Until Time 1

OS:Schedule:Rule,
  {4084972d-b926-4456-879e-54f86b7f4b88}, !- Handle
  0800|1700|Bank|default|clothing |7/1-9/30|Mon/Tue/Wed/Thu/Fri/Sat/Sun Rule, !- Name
  {87911b56-5f5a-4397-bbd1-16c8150c7f94}, !- Schedule Ruleset Name
  0,                                      !- Rule Order
  {ea874271-fde1-4490-9ac6-29c2ff8a806d}, !- Day Schedule Name
  Yes,                                    !- Apply Sunday
  Yes,                                    !- Apply Monday
  Yes,                                    !- Apply Tuesday
  Yes,                                    !- Apply Wednesday
  Yes,                                    !- Apply Thursday
  Yes,                                    !- Apply Friday
  Yes,                                    !- Apply Saturday
  ,                                       !- Apply Holiday
  DateRange,                              !- Date Specification Type