
OS:Version,
  {766ad202-4735-4c58-98a1-241a3e765f54}, !- Handle
  1.6.0;                                  !- Version Identifier

OS:ClimateZones,
  {135edfab-17e7-40db-a436-27d385a8cd6d}, !- Handle
  ,                                       !- Active Institution
  ,                                       !- Active Year
  ASHRAE,                                 !- Climate Zone Institution Name 1
  ANSI/ASHRAE Standard 169,               !- Climate Zone Document Name 1
  2006,                                   !- Climate Zone Document Year 1
  ,                                       !- Climate Zone Value 1
  CEC,                                    !- Climate Zone Institution Name 2
  California Climate Zone Descriptions,   !- Climate Zone Document Name 2
  1995,                                   !- Climate Zone Document Year 2
  ;                                       !- Climate Zone Value 2

OS:YearDescription,
  {513d8dda-86cb-442a-b01c-1f7f0e0ac70e}; !- Handle

OS:RadianceParameters,
  {270a96f1-3c86-4b75-a667-cdf22790e2c8}, !- Handle
  1,                                      !- Accumulated Rays per Record
  0,                                      !- Direct Threshold
  1,                                      !- Direct Certainty
  1,                                      !- Direct Jitter
  1,                                      !- Direct Pretest
  6,                                      !- Ambient Bounces VMX
  2,                                      !- Ambient Bounces DMX
  4050,                                   !- Ambient Divisions VMX
  512,                                    !- Ambient Divisions DMX
  256,                                    !- Ambient Supersamples
  0.001,                                  !- Limit Weight VMX
  0.001,                                  !- Limit Weight DMX
  500,                                    !- Klems Sampling Density
  146;                                    !- Sky Discretization Resolution

OS:SimulationControl,
  {2c487a4c-bac9-4ac5-b669-1e49d9da7c2b}, !- Handle
  ,                                       !- Do Zone Sizing Calculation
  ,                                       !- Do System Sizing Calculation
  ,                                       !- Do Plant Sizing Calculation
  No,                                     !- Run Simulation for Sizing Periods
  ,                                       !- Run Simulation for Weather File Run Periods
  0.04,                                   !- Loads Convergence Tolerance Value
  ,                                       !- Temperature Convergence Tolerance Value {deltaC}
  ,                                       !- Solar Distribution
  ,                                       !- Maximum Number of Warmup Days
  2;                                      !- Minimum Number of Warmup Days

OS:Sizing:Parameters,
  {dde5af6f-7923-4600-a28a-7556673a0266}, !- Handle
  1.25,                                   !- Heating Sizing Factor
  1.15;                                   !- Cooling Sizing Factor

OS:ProgramControl,
  {05027a99-f2b3-4aeb-afc6-1425fbb4371d}; !- Handle

OS:Timestep,
  {4ebc9f1e-4707-402e-9844-67eb1ffbd522}, !- Handle
  2;                                      !- Number of Timesteps per Hour

OS:OutputControl:ReportingTolerances,
  {65797aa2-06a9-45fe-b69d-bc6e060399d3}; !- Handle

OS:ConvergenceLimits,
  {9fc11aba-8822-4f3d-970c-46391ba4040d}; !- Handle

OS:ShadowCalculation,
  {ca758bea-4416-4626-9bba-3d8795c79bd6}, !- Handle
  7,                                      !- Calculation Frequency
  15000;                                  !- Maximum Figures in Shadow Overlap Calculations

OS:SurfaceConvectionAlgorithm:Inside,
  {aaabfc36-718a-4ab0-b622-f186ebb45230}, !- Handle
  TARP;                                   !- Algorithm

OS:SurfaceConvectionAlgorithm:Outside,
  {9a0a9f6f-4bbd-4b12-a121-9492a1fcd7d6}, !- Handle
  DOE-2;                                  !- Algorithm

OS:HeatBalanceAlgorithm,
  {9d93e563-e1e0-46d7-9e39-d1c8aceb7212}, !- Handle
  ConductionTransferFunction,             !- Algorithm
  200;                                    !- Surface Temperature Upper Limit {F}

OS:ZoneAirHeatBalanceAlgorithm,
  {8520d93e-310f-4696-9bcd-36228bfdd743}, !- Handle
  AnalyticalSolution;                     !- Algorithm

OS:ZoneAirContaminantBalance,
  {eb5fc3ae-fb22-4160-8fcb-3e3b22b000d3}; !- Handle

OS:ZoneCapacitanceMultiplier:ResearchSpecial,
  {4020ce4f-5a7a-4849-8028-8305d7b751b1}, !- Handle
  ,                                       !- Temperature Capacity Multiplier
  ,                                       !- Humidity Capacity Multiplier
  ;                                       !- Carbon Dioxide Capacity Multiplier

OS:RunPeriod,
  {28df894d-6af9-4fb8-8f56-df1753344aa3}, !- Handle
  Run Period 1,                           !- Name
  1,                                      !- Begin Month
  1,                                      !- Begin Day of Month
  12,                                     !- End Month
  31,                                     !- End Day of Month
  ,                                       !- Use Weather File Holidays and Special Days
  ,                                       !- Use Weather File Daylight Saving Period
  ,                                       !- Apply Weekend Holiday Rule
  ,                                       !- Use Weather File Rain Indicators
  ,                                       !- Use Weather File Snow Indicators
  ;                                       !- Number of Times Runperiod to be Repeated

OS:Building,
  {bf305633-c5a1-4881-9edf-ca5e1a8e1274}, !- Handle
  Building 1,                             !- Name
  ,                                       !- Building Sector Type
  ,                                       !- North Axis {deg}
  ,                                       !- Nominal Floor to Floor Height {m}
  ,                                       !- Space Type Name
  ,                                       !- Default Construction Set Name
  {854e8055-9d45-4df0-ab78-797477ad5e4c}, !- Default Schedule Set Name
  ,                                       !- Standards Number of Stories
  ,                                       !- Standards Number of Above Ground Stories
  Bank;                                   !- Standards Building Type

OS:LifeCycleCost:Parameters,
  {231cf8a0-f0e7-4251-a99f-11f0d464e661}, !- Handle
  FEMP,                                   !- Analysis Type
  ,                                       !- Discounting Convention
  ,                                       !- Inflation Approach
  ,                                       !- Real Discount Rate
  ,                                       !- Nominal Discount Rate
  ,                                       !- Inflation
  ,                                       !- Base Date Month
  ,                                       !- Base Date Year
  ,                                       !- Service Date Month
  ,                                       !- Service Date Year
  ,                                       !- Length of Study Period in Years
  ,                                       !- Tax Rate
  ,                                       !- Depreciation Method
  Yes;                                    !- Use NIST Fuel Escalation Rates

OS:Facility,
  {3ba8e45b-b833-44eb-a723-ea6c3946dc96}; !- Handle

OS:SpaceType,
  {14dc763f-74ba-42e3-aa27-50d484a98569}, !- Handle
  Bank|BlendFront|DOE Ref Pre-1980|ASHRAE 169-2006-5A, !- Name
  {1354b08f-cd14-46dc-adaa-f66d596b8664}, !- Default Construction Set Name
  ,                                       !- Default Schedule Set Name
  {2afbfa6d-403b-4596-9262-860905c03b8b}, !- Group Rendering Name
  {58eb4cdf-b2aa-4ae9-8aad-4852fcfed58f}, !- Design Specification Outdoor Air Object Name
  Bank,                                   !- Standards Building Type
  BlendFront;                             !- Standards Space Type

OS:Rendering:Color,
  {2afbfa6d-403b-4596-9262-860905c03b8b}, !- Handle
  Rendering Color 1,                      !- Name
  230,                                    !- Rendering Red Value
  157,                                    !- Rendering Green Value
  120;                                    !- Rendering Blue Value

OS:SpaceType,
  {ef7f1409-4206-465b-974b-aecc4503edfa}, !- Handle
  Bank|ElecMechRoom|DOE Ref Pre-1980|ASHRAE 169-2006-5A, !- Name
  {1354b08f-cd14-46dc-adaa-f66d596b8664}, !- Default Construction Set Name
  {e4e3c466-6c5c-488a-b613-c64b46387606}, !- Default Schedule Set Name
  {305bc54f-0d2f-40e0-aeb3-d62fdcbd028a}, !- Group Rendering Name
  {2f55f3b5-ad55-4cb7-9ee5-0b8d97ce5c43}, !- Design Specification Outdoor Air Object Name
  Bank,                                   !- Standards Building Type
  ElecMechRoom;                           !- Standards Space Type

OS:Rendering:Color,
  {305bc54f-0d2f-40e0-aeb3-d62fdcbd028a}, !- Handle
  Rendering Color 2,                      !- Name
  41,                                     !- Rendering Red Value
  31,                                     !- Rendering Green Value
  169;                                    !- Rendering Blue Value

OS:SpaceType,
  {cd55d7e0-253c-4ed4-8cdf-1e2a83a0ec92}, !- Handle
  Bank|Restroom|DOE Ref Pre-1980|ASHRAE 169-2006-5A, !- Name
  {1354b08f-cd14-46dc-adaa-f66d596b8664}, !- Default Construction Set Name
  {64c0c177-429b-416c-9742-e8d53c99d62c}, !- Default Schedule Set Name
  {e2b4f16f-3d97-4764-8885-58c1d039251b}, !- Group Rendering Name
  {6f51f38b-e6f9-4a32-a579-77337ffd7a52}, !- Design Specification Outdoor Air Object Name
  Bank,                                   !- Standards Building Type
  Restroom;                               !- Standards Space Type

OS:Rendering:Color,
  {e2b4f16f-3d97-4764-8885-58c1d039251b}, !- Handle
  Rendering Color 3,                      !- Name
  169,                                    !- Rendering Red Value
  169,                                    !- Rendering Green Value
  31;                                     !- Rendering Blue Value

OS:SpaceType,
  {3fea4120-0368-4f04-a7b6-95ccc02ec3c6}, !- Handle
  Bank|Vault|DOE Ref Pre-1980|ASHRAE 169-2006-5A, !- Name
  {1354b08f-cd14-46dc-adaa-f66d596b8664}, !- Default Construction Set Name
  {4521ccb7-32ec-49a4-88ac-213b8b6ed6db}, !- Default Schedule Set Name
  {4055a319-edf8-47cb-92c3-b6d3fe1cc8a1}, !- Group Rendering Name
  {74a1ae94-a658-4670-89bd-b7e61240265d}, !- Design Specification Outdoor Air Object Name
  Bank,                                   !- Standards Building Type
  Vault;                                  !- Standards Space Type

OS:Rendering:Color,
  {4055a319-edf8-47cb-92c3-b6d3fe1cc8a1}, !- Handle
  Rendering Color 4,                      !- Name
  120,                                    !- Rendering Red Value
  120,                                    !- Rendering Green Value
  120;                                    !- Rendering Blue Value

OS:Schedule:Ruleset,
  {8e07c10f-fcbf-4d0f-912b-0806dd416e82}, !- Handle
  0800|1700|Bank|default|hoo,             !- Name
  {24e551b7-aad7-4c56-8021-e9e3750a283f}, !- Schedule Type Limits Name
  {349e5571-5fcc-45dc-b2e4-640be1741b1d}, !- Default Day Schedule Name
  {c68c5ea0-3996-41a9-adbf-e6f354bac4d0}, !- Summer Design Day Schedule Name
  {35676ea7-d101-458f-a255-c21f1fd5a9cb}; !- Winter Design Day Schedule Name

OS:Schedule:Day,
  {349e5571-5fcc-45dc-b2e4-640be1741b1d}, !- Handle
  0800|1700|Bank|default|hoo Schedule Week Day, !- Name
  {24e551b7-aad7-4c56-8021-e9e3750a283f}, !- Schedule Type Limits Name
  ,                                       !- Interpolate to Timestep
  8,                                      !- Hour 1
  0,                                      !- Minute 1
  0,                                      !- Value Until Time 1
  17,                                     !- Hour 2
  0,                                      !- Minute 2
  1,                                      !- Value Until Time 2
  24,                                     !- Hour 3
  0,                                      !- Minute 3
  0;                                      !- Value Until Time 3

OS:Schedule:Day,
  {7e8fcf21-87f3-4ee9-867f-b10c0e4548d1}, !- Handle
  Schedule Day 2,                         !- Name
  ,                                       !- Schedule Type Limits Name
  ,                                       !- Interpolate to Timestep
  24,                                     !- Hour 1
  0,                                      !- Minute 1
  0;                                      !- Value Until Time 1

OS:Schedule:Day,
  {35676ea7-d101-458f-a255-c21f1fd5a9cb}, !- Handle
  0800|1700|Bank|default|hoo Winter Design Day, !- Name
  {24e551b7-aad7-4c56-8021-e9e3750a283f}, !- Schedule Type Limits Name
  ,                                       !- Interpolate to Timestep
  24,                                     !- Hour 1
  0,                                      !- Minute 1
  0;                                      !- Value Until Time 1

OS:Schedule:Day,
  {08481f15-750f-4739-86e7-e3c9267a8c52}, !- Handle
  Schedule Day 3,                         !- Name
  ,                                       !- Schedule Type Limits Name
  ,                                       !- Interpolate to Timestep
  24,                                     !- Hour 1
  0,                                      !- Minute 1
  0;                                      !- Value Until Time 1

OS:Schedule:Day,
  {c68c5ea0-3996-41a9-adbf-e6f354bac4d0}, !- Handle
  0800|1700|Bank|default|hoo Summer Design Day, !- Name
  {24e551b7-aad7-4c56-8021-e9e3750a283f}, !- Schedule Type Limits Name
  ,                                       !- Interpolate to Timestep
  24,                                     !- Hour 1
  0,                                      !- Minute 1
  1;                                      !- Value Until Time 1

OS:DefaultScheduleSet,
  {854e8055-9d45-4df0-ab78-797477ad5e4c}, !- Handle
  Building Hours of Operation,            !- Name
  {8e07c10f-fcbf-4d0f-912b-0806dd416e82}, !- Hours of Operation Schedule Name
  ,                                       !- Number of People Schedule Name
  ,                                       !- People Activity Level Schedule Name
  ,                                       !- Lighting Schedule Name
  ,                                       !- Electric Equipment Schedule Name
  ,                                       !- Gas Equipment Schedule Name
  ,                                       !- Hot Water Equipment Schedule Name
  ,                                       !- Infiltration Schedule Name
  ,                                       !- Steam Equipment Schedule Name
  ;                                       !- Other Equipment Schedule Name

OS:ScheduleTypeLimits,
  {24e551b7-aad7-4c56-8021-e9e3750a283f}, !- Handle
  OnOff,                                  !- Name
  0,                                      !- Lower Limit Value {BasedOnField A4}
  1,                                      !- Upper Limit Value {BasedOnField A4}
  Discrete,                               !- Numeric Type
  Availability;                           !- Unit Type

OS:Schedule:Ruleset,
  {26016dfa-3f67-4244-99ee-a09d3ebe2152}, !- Handle
  0800|1700|Bank|default|activity,        !- Name
  {fccc2d63-1dab-4332-a850-d2b828434a6c}, !- Schedule Type Limits Name
  {cc59e787-84bf-466c-aab2-2b4b33189eaf}, !- Default Day Schedule Name
  {7c23ff6a-7fc8-4e5b-ad7f-1382e8a5ff6e}, !- Summer Design Day Schedule Name
  {f4d1d107-ea8e-4762-8f35-f2995f1845df}; !- Winter Design Day Schedule Name

OS:ScheduleTypeLimits,
  {fccc2d63-1dab-4332-a850-d2b828434a6c}, !- Handle
  People Activity Type Limits,            !- Name
  0,                                      !- Lower Limit Value {BasedOnField A4}
  ,                                       !- Upper Limit Value {BasedOnField A4}
  Continuous,                             !- Numeric Type
  ActivityLevel;                          !- Unit Type

OS:Schedule:Day,
  {cc59e787-84bf-466c-aab2-2b4b33189eaf}, !- Handle
  0800|1700|Bank|default|activity |default, !- Name
  {fccc2d63-1dab-4332-a850-d2b828434a6c}, !- Schedule Type Limits Name
  ,                                       !- Interpolate to Timestep
  24,                                     !- Hour 1
  0,                                      !- Minute 1
  120;                                    !- Value Until Time 1

OS:Schedule:Day,
  {7c23ff6a-7fc8-4e5b-ad7f-1382e8a5ff6e}, !- Handle
  0800|1700|Bank|default|activity Summer Design Day, !- Name
  {fccc2d63-1dab-4332-a850-d2b828434a6c}, !- Schedule Type Limits Name
  ,                                       !- Interpolate to Timestep
  24,                                     !- Hour 1
  0,                                      !- Minute 1
  120;                                    !- Value Until Time 1

OS:Schedule:Day,
  {f4d1d107-ea8e-4762-8f35-f2995f1845df}, !- Handle
  0800|1700|Bank|default|activity Winter Design Day, !- Name
  {fccc2d63-1dab-4332-a850-d2b828434a6c}, !- Schedule Type Limits Name
  ,                                       !- Interpolate to Timestep
  24,                                     !- Hour 1
  0,                                      !- Minute 1
  120;                                    !- Value Until Time 1

OS:Schedule:Ruleset,
  {5ed3e5b9-486c-4193-b329-eaadc9412e85}, !- Handle
  0800|1700|Bank|default|elec_equip,      !- Name
  {0f3964e5-e0a9-45c6-8876-ee197fc9f465}, !- Schedule Type Limits Name
  {b5646843-689c-4c0d-bd35-2d3593bf4c1a}, !- Default Day Schedule Name
  {2b23dd2e-b535-4828-b31a-488a01e91421}, !- Summer Design Day Schedule Name
  {e8fc67b4-6a9b-44a4-a138-8e09bf017f2c}; !- Winter Design Day Schedule Name

OS:ScheduleTypeLimits,
  {0f3964e5-e0a9-45c6-8876-ee197fc9f465}, !- Handle
  Equipment Schedule Type Limits,         !- Name
  0,                                      !- Lower Limit Value {BasedOnField A4}
  1,                                      !- Upper Limit Value {BasedOnField A4}
  Continuous,                             !- Numeric Type
  Dimensionless;                          !- Unit Type

OS:Schedule:Day,
  {b5646843-689c-4c0d-bd35-2d3593bf4c1a}, !- Handle
  0800|1700|Bank|default|elec_equip |default, !- Name
  {0f3964e5-e0a9-45c6-8876-ee197fc9f465}, !- Schedule Type Limits Name
  ,                                       !- Interpolate to Timestep
  8,                                      !- Hour 1
  0,                                      !- Minute 1
  0.4,                                    !- Value Until Time 1
  12,                                     !- Hour 2
  0,                                      !- Minute 2
  0.9,                                    !- Value Until Time 2
  13,                                     !- Hour 3
  0,                                      !- Minute 3
  0.8,                                    !- Value Until Time 3
  16,                                     !- Hour 4
  0,                                      !- Minute 4
  0.9,                                    !- Value Until Time 4
  16,                                     !- Hour 5
  30,                                     !- Minute 5
  0.8,                                    !- Value Until Time 5
  17,                                     !- Hour 6
  0,                                      !- Minute 6
  0.7,                                    !- Value Until Time 6
  17,                                     !- Hour 7
  30,                                     !- Minute 7
  0.6,                                    !- Value Until Time 7
  18,                                     !- Hour 8
  0,                                      !- Minute 8
  0.5,                                    !- Value Until Time 8
  18,                                     !- Hour 9
  30,                                     !- Minute 9
  0.49,                                   !- Value Until Time 9
  19,                                     !- Hour 10
  0,                                      !- Minute 10
  0.48,                                   !- Value Until Time 10
  19,                                     !- Hour 11
  30,                                     !- Minute 11
  0.47,                                   !- Value Until Time 11
  20,                                     !- Hour 12
  0,                                      !- Minute 12
  0.46,                                   !- Value Until Time 12
  20,                                     !- Hour 13
  30,                                     !- Minute 13
  0.45,                                   !- Value Until Time 13
  21,                                     !- Hour 14
  0,                                      !- Minute 14
  0.44,                                   !- Value Until Time 14
  21,                                     !- Hour 15
  30,                                     !- Minute 15
  0.43,                                   !- Value Until Time 15
  22,                                     !- Hour 16
  0,                                      !- Minute 16
  0.42,                                   !- Value Until Time 16
  22,                                     !- Hour 17
  30,                                     !- Minute 17
  0.41,                                   !- Value Until Time 17
  24,                                     !- Hour 18
  0,                                      !- Minute 18
  0.4;                                    !- Value Until Time 18

OS:Schedule:Day,
  {2b23dd2e-b535-4828-b31a-488a01e91421}, !- Handle
  0800|1700|Bank|default|elec_equip Summer Design Day, !- Name
  {0f3964e5-e0a9-45c6-8876-ee197fc9f465}, !- Schedule Type Limits Name
  ,                                       !- Interpolate to Timestep
  24,                                     !- Hour 1
  0,                                      !- Minute 1
  1;                                      !- Value Until Time 1

OS:Schedule:Day,
  {e8fc67b4-6a9b-44a4-a138-8e09bf017f2c}, !- Handle
  0800|1700|Bank|default|elec_equip Winter Design Day, !- Name
  {0f3964e5-e0a9-45c6-8876-ee197fc9f465}, !- Schedule Type Limits Name
  ,                                       !- Interpolate to Timestep
  24,                                     !- Hour 1
  0,                                      !- Minute 1
  0.4;                                    !- Value Until Time 1

OS:Schedule:Rule,
  {ed99ae2d-fe6a-4f82-9c81-c4d89d573075}, !- Handle
  0800|1700|Bank|default|elec_equip |1/1-12/31|Sun Rule, !- Name
  {5ed3e5b9-486c-4193-b329-eaadc9412e85}, !- Schedule Ruleset Name
  0,                                      !- Rule Order
  {5929c50b-48d9-41c3-bb2c-d472ecf744cc}, !- Day Schedule Name
  Yes,                                    !- Apply Sunday
  ,                                       !- Apply Monday
  ,                                       !- Apply Tuesday
  ,                                       !- Apply Wednesday
  ,                                       !- Apply Thursday
  ,                                       !- Apply Friday
  ,                                       !- Apply Saturday
  ,                                       !- Apply Holiday
  DateRange,                              !- Date Specification Type
  1,                                      !- Start Month
  1,                                      !- Start Day
  12,                                     !- End Month
  31;                                     !- End Day

OS:Schedule:Day,
  {5929c50b-48d9-41c3-bb2c-d472ecf744cc}, !- Handle
  0800|1700|Bank|default|elec_equip |1/1-12/31|Sun, !- Name
  {0f3964e5-e0a9-45c6-8876-ee197fc9f465}, !- Schedule Type Limits Name
  ,                                       !- Interpolate to Timestep
  24,                                     !- Hour 1
  0,                                      !- Minute 1
  0.3;                                    !- Value Until Time 1

OS:Schedule:Rule,
  {366fc61a-c3c2-4cad-b297-b8a424c1c8aa}, !- Handle
  0800|1700|Bank|default|elec_equip |1/1-12/31|Sat Rule, !- Name
  {5ed3e5b9-486c-4193-b329-eaadc9412e85}, !- Schedule Ruleset Name
  1,                                      !- Rule Order
  {94d0662d-ad2b-4a1d-9b5f-1bbd337566e3}, !- Day Schedule Name
  ,                                       !- Apply Sunday
  ,                                       !- Apply Monday
  ,                                       !- Apply Tuesday
  ,                                       !- Apply Wednesday
  ,                                       !- Apply Thursday
  ,                                       !- Apply Friday
  Yes,                                    !- Apply Saturday
  ,                                       !- Apply Holiday
  DateRange,                              !- Date Specification Type
  1,                                      !- Start Month
  1,                                      !- Start Day
  12,                                     !- End Month
  31;                                     !- End Day

OS:Schedule:Day,
  {94d0662d-ad2b-4a1d-9b5f-1bbd337566e3}, !- Handle
  0800|1700|Bank|default|elec_equip |1/1-12/31|Sat, !- Name
  {0f3964e5-e0a9-45c6-8876-ee197fc9f465}, !- Schedule Type Limits Name
  ,                                       !- Interpolate to Timestep
  5,                                      !- Hour 1
  0,                                      !- Minute 1
  0.3,                                    !- Value Until Time 1
  5,                                      !- Hour 2
  30,                                     !- Minute 2
  0.33,                                   !- Value Until Time 2
  6,                                      !- Hour 3
  0,                                      !- Minute 3
  0.37,                                   !- Value Until Time 3
  6,                                      !- Hour 4
  30,                                     !- Minute 4
  0.4,                                    !- Value Until Time 4
  7,                                      !- Hour 5
  0,                                      !- Minute 5
  0.43,                                   !- Value Until Time 5
  7,                                      !- Hour 6
  30,                                     !- Minute 6
  0.47,                                   !- Value Until Time 6
  13,                                     !- Hour 7
  0,                                      !- Minute 7
  0.5,                                    !- Value Until Time 7
  13,                                     !- Hour 8
  30,                                     !- Minute 8
  0.48,                                   !- Value Until Time 8
  14,                                     !- Hour 9
  0,                                      !- Minute 9
  0.46,                                   !- Value Until Time 9
  14,                                     !- Hour 10
  30,                                     !- Minute 10
  0.44,                                   !- Value Until Time 10
  15,                                     !- Hour 11
  0,                                      !- Minute 11
  0.42,                                   !- Value Until Time 11
  15,                                     !- Hour 12
  30,                                     !- Minute 12
  0.4,                                    !- Value Until Time 12
  16,                                     !- Hour 13
  0,                                      !- Minute 13
  0.38,                                   !- Value Until Time 13
  16,                                     !- Hour 14
  30,                                     !- Minute 14
  0.36,                                   !- Value Until Time 14
  17,                                     !- Hour 15
  0,                                      !- Minute 15
  0.34,                                   !- Value Until Time 15
  17,                                     !- Hour 16
  30,                                     !- Minute 16
  0.32,                                   !- Value Until Time 16
  24,                                     !- Hour 17
  0,                                      !- Minute 17
  0.3;                                    !- Value Until Time 17

OS:Schedule:Ruleset,
  {1da0e95e-c02a-4ee1-adc1-b9d7f92d4c76}, !- Handle
  0800|1700|Bank|default|thermal_ctrl,    !- Name
  {79567ed5-a668-4522-bcd0-31c9bb7ddd1b}, !- Schedule Type Limits Name
  {e2e26007-c1bd-486a-bead-ae8983b0ceb9}, !- Default Day Schedule Name
  {45c66cbc-c951-4010-9b57-496e4b8f7d0f}, !- Summer Design Day Schedule Name
  {b6e6ee38-eb63-4c0b-8339-c0213e6e3c84}; !- Winter Design Day Schedule Name

OS:ScheduleTypeLimits,
  {79567ed5-a668-4522-bcd0-31c9bb7ddd1b}, !- Handle
  Dimensionless Schedule Type Limits,     !- Name
  ,                                       !- Lower Limit Value {BasedOnField A4}
  ,                                       !- Upper Limit Value {BasedOnField A4}
  Continuous,                             !- Numeric Type
  Dimensionless;                          !- Unit Type

OS:Schedule:Day,
  {e2e26007-c1bd-486a-bead-ae8983b0ceb9}, !- Handle
  0800|1700|Bank|default|thermal_ctrl |default, !- Name
  {79567ed5-a668-4522-bcd0-31c9bb7ddd1b}, !- Schedule Type Limits Name
  ,                                       !- Interpolate to Timestep
  24,                                     !- Hour 1
  0,                                      !- Minute 1
  4;                                      !- Value Until Time 1

OS:Schedule:Day,
  {45c66cbc-c951-4010-9b57-496e4b8f7d0f}, !- Handle
  0800|1700|Bank|default|thermal_ctrl Summer Design Day, !- Name
  {79567ed5-a668-4522-bcd0-31c9bb7ddd1b}, !- Schedule Type Limits Name
  ,                                       !- Interpolate to Timestep
  24,                                     !- Hour 1
  0,                                      !- Minute 1
  4;                                      !- Value Until Time 1

OS:Schedule:Day,
  {b6e6ee38-eb63-4c0b-8339-c0213e6e3c84}, !- Handle
  0800|1700|Bank|default|thermal_ctrl Winter Design Day, !- Name
  {79567ed5-a668-4522-bcd0-31c9bb7ddd1b}, !- Schedule Type Limits Name