
OS:Version,
  {06589b55-24db-4c2f-bd26-2f248cb8aea6}, !- Handle
  1.6.0;                                  !- Version Identifier

OS:ClimateZones,
  {135edfab-17e7-40db-a436-27d385a8cd6d}, !- Handle
  ,                                       !- Active Institution
  ,                                       !- Active Year
  ASHRAE,                                 !- Climate Zone Institution Name 1
  ANSI/ASHRAE Standard 169,               !- Climate Zone Document Name 1
  2006,                                   !- Climate Zone Document Year 1
  ,                                       !- Climate Zone Value 1
  CEC,                                    !- Climate Zone Institution Name 2
  California Climate Zone Descriptions,   !- Climate Zone Document Name 2
  1995,                                   !- Climate Zone Document Year 2
  ;                                       !- Climate Zone Value 2

OS:YearDescription,
  {513d8dda-86cb-442a-b01c-1f7f0e0ac70e}; !- Handle

OS:RadianceParameters,
  {270a96f1-3c86-4b75-a667-cdf22790e2c8}, !- Handle
  1,                                      !- Accumulated Rays per Record
  0,                                      !- Direct Threshold
  1,                                      !- Direct Certainty
  1,                                      !- Direct Jitter
  1,                                      !- Direct Pretest
  6,                                      !- Ambient Bounces VMX
  2,                                      !- Ambient Bounces DMX
  4050,                                   !- Ambient Divisions VMX
  512,                                    !- Ambient Divisions DMX
  256,                                    !- Ambient Supersamples
  0.001,                                  !- Limit Weight VMX
  0.001,                                  !- Limit Weight DMX
  500,                                    !- Klems Sampling Density
  146;                                    !- Sky Discretization Resolution

OS:SimulationControl,
  {2c487a4c-bac9-4ac5-b669-1e49d9da7c2b}, !- Handle
  ,                                       !- Do Zone Sizing Calculation
  ,                                       !- Do System Sizing Calculation
  ,                                       !- Do Plant Sizing Calculation
  No,                                     !- Run Simulation for Sizing Periods
  ,                                       !- Run Simulation for Weather File Run Periods
  0.04,                                   !- Loads Convergence Tolerance Value
  ,                                       !- Temperature Convergence Tolerance Value {deltaC}
  ,                                       !- Solar Distribution
  ,                                       !- Maximum Number of Warmup Days
  2;                                      !- Minimum Number of Warmup Days

OS:Sizing:Parameters,
  {dde5af6f-7923-4600-a28a-7556673a0266}, !- Handle
  1.25,                                   !- Heating Sizing Factor
  1.15;                                   !- Cooling Sizing Factor

OS:ProgramControl,
  {05027a99-f2b3-4aeb-afc6-1425fbb4371d}; !- Handle

OS:Timestep,
  {4ebc9f1e-4707-402e-9844-67eb1ffbd522}, !- Handle
  2;                                      !- Number of Timesteps per Hour

OS:OutputControl:ReportingTolerances,
  {65797aa2-06a9-45fe-b69d-bc6e060399d3}; !- Handle

OS:ConvergenceLimits,
  {9fc11aba-8822-4f3d-970c-46391ba4040d}; !- Handle

OS:ShadowCalculation,
  {ca758bea-4416-4626-9bba-3d8795c79bd6}, !- Handle
  7,                                      !- Calculation Frequency
  15000;                                  !- Maximum Figures in Shadow Overlap Calculations

OS:SurfaceConvectionAlgorithm:Inside,
  {aaabfc36-718a-4ab0-b622-f186ebb45230}, !- Handle
  TARP;                                   !- Algorithm

OS:SurfaceConvectionAlgorithm:Outside,
  {9a0a9f6f-4bbd-4b12-a121-9492a1fcd7d6}, !- Handle
  DOE-2;                                  !- Algorithm

OS:HeatBalanceAlgorithm,
  {9d93e563-e1e0-46d7-9e39-d1c8aceb7212}, !- Handle
  ConductionTransferFunction,             !- Algorithm
  200;                                    !- Surface Temperature Upper Limit {F}

OS:ZoneAirHeatBalanceAlgorithm,
  {8520d93e-310f-4696-9bcd-36228bfdd743}, !- Handle
  AnalyticalSolution;                     !- Algorithm

OS:ZoneAirContaminantBalance,
  {eb5fc3ae-fb22-4160-8fcb-3e3b22b000d3}; !- Handle

OS:ZoneCapacitanceMultiplier:ResearchSpecial,
  {4020ce4f-5a7a-4849-8028-8305d7b751b1}, !- Handle
  ,                                       !- Temperature Capacity Multiplier
  ,                                       !- Humidity Capacity Multiplier
  ;                                       !- Carbon Dioxide Capacity Multiplier

OS:RunPeriod,
  {28df894d-6af9-4fb8-8f56-df1753344aa3}, !- Handle
  Run Period 1,                           !- Name
  1,                                      !- Begin Month
  1,                                      !- Begin Day of Month
  12,                                     !- End Month
  31,                                     !- End Day of Month
  ,                                       !- Use Weather File Holidays and Special Days
  ,                                       !- Use Weather File Daylight Saving Period
  ,                                       !- Apply Weekend Holiday Rule
  ,                                       !- Use Weather File Rain Indicators
  ,                                       !- Use Weather File Snow Indicators
  ;                                       !- Number of Times Runperiod to be Repeated

OS:Building,
  {bf305633-c5a1-4881-9edf-ca5e1a8e1274}, !- Handle
  Building 1,                             !- Name
  ,                                       !- Building Sector Type
  ,                                       !- North Axis {deg}
  ,                                       !- Nominal Floor to Floor Height {m}
  ,                                       !- Space Type Name
  ,                                       !- Default Construction Set Name
  {f744c835-6b7a-4a54-9a99-6e6a2bd57cb6}, !- Default Schedule Set Name
  ,                                       !- Standards Number of Stories
  ,                                       !- Standards Number of Above Ground Stories
  Bank;                                   !- Standards Building Type

OS:LifeCycleCost:Parameters,
  {231cf8a0-f0e7-4251-a99f-11f0d464e661}, !- Handle
  FEMP,                                   !- Analysis Type
  ,                                       !- Discounting Convention
  ,                                       !- Inflation Approach
  ,                                       !- Real Discount Rate
  ,                                       !- Nominal Discount Rate
  ,                                       !- Inflation
  ,                                       !- Base Date Month
  ,                                       !- Base Date Year
  ,                                       !- Service Date Month
  ,                                       !- Service Date Year
  ,                                       !- Length of Study Period in Years
  ,                                       !- Tax Rate
  ,                                       !- Depreciation Method
  Yes;                                    !- Use NIST Fuel Escalation Rates

OS:Facility,
  {3ba8e45b-b833-44eb-a723-ea6c3946dc96}; !- Handle

OS:SpaceType,
  {d0f689a4-a5e2-415e-9aba-d894294c285e}, !- Handle
  Bank|BlendFront|DOE Ref 1980-2004|ASHRAE 169-2006-5A, !- Name
  {6165e3ca-4360-4063-961e-f597816c34f0}, !- Default Construction Set Name
  ,                                       !- Default Schedule Set Name
  {133c77c3-0b46-450a-a2cd-3755215542c0}, !- Group Rendering Name
  {41e35687-9b0e-48ec-8dc3-71efccab0fb3}, !- Design Specification Outdoor Air Object Name
  Bank,                                   !- Standards Building Type
  BlendFront;                             !- Standards Space Type

OS:Rendering:Color,
  {133c77c3-0b46-450a-a2cd-3755215542c0}, !- Handle
  Rendering Color 1,                      !- Name
  230,                                    !- Rendering Red Value
  157,                                    !- Rendering Green Value
  120;                                    !- Rendering Blue Value

OS:SpaceType,
  {2c70d074-000e-4238-8ec5-f3d8f3868447}, !- Handle
  Bank|ElecMechRoom|DOE Ref 1980-2004|ASHRAE 169-2006-5A, !- Name
  {6165e3ca-4360-4063-961e-f597816c34f0}, !- Default Construction Set Name
  {aff6c50a-7720-4724-b862-5fa241e9bb96}, !- Default Schedule Set Name
  {f7286daf-6edb-4d2d-a9b5-06e7c4b5d562}, !- Group Rendering Name
  {ec80794c-27c0-414d-9898-6e98c52cdc26}, !- Design Specification Outdoor Air Object Name
  Bank,                                   !- Standards Building Type
  ElecMechRoom;                           !- Standards Space Type

OS:Rendering:Color,
  {f7286daf-6edb-4d2d-a9b5-06e7c4b5d562}, !- Handle
  Rendering Color 2,                      !- Name
  41,                                     !- Rendering Red Value
  31,                                     !- Rendering Green Value
  169;                                    !- Rendering Blue Value

OS:SpaceType,
  {5628064e-3067-46e7-853d-88884cba6fc5}, !- Handle
  Bank|Restroom|DOE Ref 1980-2004|ASHRAE 169-2006-5A, !- Name
  {6165e3ca-4360-4063-961e-f597816c34f0}, !- Default Construction Set Name
  {fb0aea5e-e4bc-4bcf-a80c-3eae5ac7c956}, !- Default Schedule Set Name
  {5a695a15-7ac4-4523-a036-62c32ef1ecd2}, !- Group Rendering Name
  {11802e9d-7aa7-4243-ab36-dd3e5fff3732}, !- Design Specification Outdoor Air Object Name
  Bank,                                   !- Standards Building Type
  Restroom;                               !- Standards Space Type

OS:Rendering:Color,
  {5a695a15-7ac4-4523-a036-62c32ef1ecd2}, !- Handle
  Rendering Color 3,                      !- Name
  169,                                    !- Rendering Red Value
  169,                                    !- Rendering Green Value
  31;                                     !- Rendering Blue Value

OS:SpaceType,
  {0e64c6f1-870a-4c6a-bf9b-8063fa18b934}, !- Handle
  Bank|Vault|DOE Ref 1980-2004|ASHRAE 169-2006-5A, !- Name
  {6165e3ca-4360-4063-961e-f597816c34f0}, !- Default Construction Set Name
  {d098f2d0-ff2c-417e-827e-48c1b1a39547}, !- Default Schedule Set Name
  {4f97dcc6-916c-4db2-a61e-19f3e3f4f2d0}, !- Group Rendering Name
  {889caa39-279a-45eb-85ff-2c6e82cb5be0}, !- Design Specification Outdoor Air Object Name
  Bank,                                   !- Standards Building Type
  Vault;                                  !- Standards Space Type

OS:Rendering:Color,
  {4f97dcc6-916c-4db2-a61e-19f3e3f4f2d0}, !- Handle
  Rendering Color 4,                      !- Name
  120,                                    !- Rendering Red Value
  120,                                    !- Rendering Green Value
  120;                                    !- Rendering Blue Value

OS:Schedule:Ruleset,
  {b7b3de9b-fce6-4c16-902b-9be847a7d504}, !- Handle
  0800|1700|Bank|default|hoo,             !- Name
  {4c477955-4ee3-4469-b153-2d1e2318fe51}, !- Schedule Type Limits Name
  {d5fc7b41-1c4f-4b8a-9488-d488c877deb7}, !- Default Day Schedule Name
  {615d75d6-7bd6-47b4-a3dd-8bf9b4192872}, !- Summer Design Day Schedule Name
  {bef00258-bbae-4c29-b66d-d200c1819a07}; !- Winter Design Day Schedule Name

OS:Schedule:Day,
  {d5fc7b41-1c4f-4b8a-9488-d488c877deb7}, !- Handle
  0800|1700|Bank|default|hoo Schedule Week Day, !- Name
  {4c477955-4ee3-4469-b153-2d1e2318fe51}, !- Schedule Type Limits Name
  ,                                       !- Interpolate to Timestep
  8,                                      !- Hour 1
  0,                                      !- Minute 1
  0,                                      !- Value Until Time 1
  17,                                     !- Hour 2
  0,                                      !- Minute 2
  1,                                      !- Value Until Time 2
  24,                                     !- Hour 3
  0,                                      !- Minute 3
  0;                                      !- Value Until Time 3

OS:Schedule:Day,
  {a5c57c63-ebe4-4365-9b53-5d8d198a5001}, !- Handle
  Schedule Day 2,                         !- Name
  ,                                       !- Schedule Type Limits Name
  ,                                       !- Interpolate to Timestep
  24,                                     !- Hour 1
  0,                                      !- Minute 1
  0;                                      !- Value Until Time 1

OS:Schedule:Day,
  {bef00258-bbae-4c29-b66d-d200c1819a07}, !- Handle
  0800|1700|Bank|default|hoo Winter Design Day, !- Name
  {4c477955-4ee3-4469-b153-2d1e2318fe51}, !- Schedule Type Limits Name
  ,                                       !- Interpolate to Timestep
  24,                                     !- Hour 1
  0,                                      !- Minute 1
  0;                                      !- Value Until Time 1

OS:Schedule:Day,
  {eadb041d-55d1-4858-bcae-3ecd7dc62b09}, !- Handle
  Schedule Day 3,                         !- Name
  ,                                       !- Schedule Type Limits Name
  ,                                       !- Interpolate to Timestep
  24,                                     !- Hour 1
  0,                                      !- Minute 1
  0;                                      !- Value Until Time 1

OS:Schedule:Day,
  {615d75d6-7bd6-47b4-a3dd-8bf9b4192872}, !- Handle
  0800|1700|Bank|default|hoo Summer Design Day, !- Name
  {4c477955-4ee3-4469-b153-2d1e2318fe51}, !- Schedule Type Limits Name
  ,                                       !- Interpolate to Timestep
  24,                                     !- Hour 1
  0,                                      !- Minute 1
  1;                                      !- Value Until Time 1

OS:DefaultScheduleSet,
  {f744c835-6b7a-4a54-9a99-6e6a2bd57cb6}, !- Handle
  Building Hours of Operation,            !- Name
  {b7b3de9b-fce6-4c16-902b-9be847a7d504}, !- Hours of Operation Schedule Name
  ,                                       !- Number of People Schedule Name
  ,                                       !- People Activity Level Schedule Name
  ,                                       !- Lighting Schedule Name
  ,                                       !- Electric Equipment Schedule Name
  ,                                       !- Gas Equipment Schedule Name
  ,                                       !- Hot Water Equipment Schedule Name
  ,                                       !- Infiltration Schedule Name
  ,                                       !- Steam Equipment Schedule Name
  ;                                       !- Other Equipment Schedule Name

OS:ScheduleTypeLimits,
  {4c477955-4ee3-4469-b153-2d1e2318fe51}, !- Handle
  OnOff,                                  !- Name
  0,                                      !- Lower Limit Value {BasedOnField A4}
  1,                                      !- Upper Limit Value {BasedOnField A4}
  Discrete,                               !- Numeric Type
  Availability;                           !- Unit Type

OS:Schedule:Ruleset,
  {e20d1299-43f8-4081-be1d-42edc924e707}, !- Handle
  0800|1700|Bank|default|activity,        !- Name
  {e6b1db1d-40ae-40b2-a982-958deca2a397}, !- Schedule Type Limits Name
  {b4668bd0-0bb7-4cec-98e9-530adca9605a}, !- Default Day Schedule Name
  {f42a0c48-d59b-4766-acf7-03791e793b80}, !- Summer Design Day Schedule Name
  {b1c5aed2-4c8c-4f1f-a6bd-2f8b6fe3214c}; !- Winter Design Day Schedule Name

OS:ScheduleTypeLimits,
  {e6b1db1d-40ae-40b2-a982-958deca2a397}, !- Handle
  People Activity Type Limits,            !- Name
  0,                                      !- Lower Limit Value {BasedOnField A4}
  ,                                       !- Upper Limit Value {BasedOnField A4}
  Continuous,                             !- Numeric Type
  ActivityLevel;                          !- Unit Type

OS:Schedule:Day,
  {b4668bd0-0bb7-4cec-98e9-530adca9605a}, !- Handle
  0800|1700|Bank|default|activity |default, !- Name
  {e6b1db1d-40ae-40b2-a982-958deca2a397}, !- Schedule Type Limits Name
  ,                                       !- Interpolate to Timestep
  24,                                     !- Hour 1
  0,                                      !- Minute 1
  120;                                    !- Value Until Time 1

OS:Schedule:Day,
  {f42a0c48-d59b-4766-acf7-03791e793b80}, !- Handle
  0800|1700|Bank|default|activity Summer Design Day, !- Name
  {e6b1db1d-40ae-40b2-a982-958deca2a397}, !- Schedule Type Limits Name
  ,                                       !- Interpolate to Timestep
  24,                                     !- Hour 1
  0,                                      !- Minute 1
  120;                                    !- Value Until Time 1

OS:Schedule:Day,
  {b1c5aed2-4c8c-4f1f-a6bd-2f8b6fe3214c}, !- Handle
  0800|1700|Bank|default|activity Winter Design Day, !- Name
  {e6b1db1d-40ae-40b2-a982-958deca2a397}, !- Schedule Type Limits Name
  ,                                       !- Interpolate to Timestep
  24,                                     !- Hour 1
  0,                                      !- Minute 1
  120;                                    !- Value Until Time 1

OS:Schedule:Ruleset,
  {227516ba-de47-4f67-8666-9da90b7497e3}, !- Handle
  0800|1700|Bank|default|elec_equip,      !- Name
  {c43c0e93-2ca1-4d63-b7ff-41ccca9be05a}, !- Schedule Type Limits Name
  {460a52e4-c113-411d-ba14-6517934fa8fe}, !- Default Day Schedule Name
  {9717a6c8-3f50-4209-92b8-10a7526ee74e}, !- Summer Design Day Schedule Name
  {ae91eff1-80aa-4532-a2b4-be80c1cc5d2c}; !- Winter Design Day Schedule Name

OS:ScheduleTypeLimits,
  {c43c0e93-2ca1-4d63-b7ff-41ccca9be05a}, !- Handle
  Equipment Schedule Type Limits,         !- Name
  0,                                      !- Lower Limit Value {BasedOnField A4}
  1,                                      !- Upper Limit Value {BasedOnField A4}
  Continuous,                             !- Numeric Type
  Dimensionless;                          !- Unit Type

OS:Schedule:Day,
  {460a52e4-c113-411d-ba14-6517934fa8fe}, !- Handle
  0800|1700|Bank|default|elec_equip |default, !- Name
  {c43c0e93-2ca1-4d63-b7ff-41ccca9be05a}, !- Schedule Type Limits Name
  ,                                       !- Interpolate to Timestep
  8,                                      !- Hour 1
  0,                                      !- Minute 1
  0.4,                                    !- Value Until Time 1
  12,                                     !- Hour 2
  0,                                      !- Minute 2
  0.9,                                    !- Value Until Time 2
  13,                                     !- Hour 3
  0,                                      !- Minute 3
  0.8,                                    !- Value Until Time 3
  16,                                     !- Hour 4
  0,                                      !- Minute 4
  0.9,                                    !- Value Until Time 4
  16,                                     !- Hour 5
  30,                                     !- Minute 5
  0.8,                                    !- Value Until Time 5
  17,                                     !- Hour 6
  0,                                      !- Minute 6
  0.7,                                    !- Value Until Time 6
  17,                                     !- Hour 7
  30,                                     !- Minute 7
  0.6,                                    !- Value Until Time 7
  18,                                     !- Hour 8
  0,                                      !- Minute 8
  0.5,                                    !- Value Until Time 8
  18,                                     !- Hour 9
  30,                                     !- Minute 9
  0.49,                                   !- Value Until Time 9
  19,                                     !- Hour 10
  0,                                      !- Minute 10
  0.48,                                   !- Value Until Time 10
  19,                                     !- Hour 11
  30,                                     !- Minute 11
  0.47,                                   !- Value Until Time 11
  20,                                     !- Hour 12
  0,                                      !- Minute 12
  0.46,                                   !- Value Until Time 12
  20,                                     !- Hour 13
  30,                                     !- Minute 13
  0.45,                                   !- Value Until Time 13
  21,                                     !- Hour 14
  0,                                      !- Minute 14
  0.44,                                   !- Value Until Time 14
  21,                                     !- Hour 15
  30,                                     !- Minute 15
  0.43,                                   !- Value Until Time 15
  22,                                     !- Hour 16
  0,                                      !- Minute 16
  0.42,                                   !- Value Until Time 16
  22,                                     !- Hour 17
  30,                                     !- Minute 17
  0.41,                                   !- Value Until Time 17
  24,                                     !- Hour 18
  0,                                      !- Minute 18
  0.4;                                    !- Value Until Time 18

OS:Schedule:Day,
  {9717a6c8-3f50-4209-92b8-10a7526ee74e}, !- Handle
  0800|1700|Bank|default|elec_equip Summer Design Day, !- Name
  {c43c0e93-2ca1-4d63-b7ff-41ccca9be05a}, !- Schedule Type Limits Name
  ,                                       !- Interpolate to Timestep
  24,                                     !- Hour 1
  0,                                      !- Minute 1
  1;                                      !- Value Until Time 1

OS:Schedule:Day,
  {ae91eff1-80aa-4532-a2b4-be80c1cc5d2c}, !- Handle
  0800|1700|Bank|default|elec_equip Winter Design Day, !- Name
  {c43c0e93-2ca1-4d63-b7ff-41ccca9be05a}, !- Schedule Type Limits Name
  ,                                       !- Interpolate to Timestep
  24,                                     !- Hour 1
  0,                                      !- Minute 1
  0.4;                                    !- Value Until Time 1

OS:Schedule:Rule,
  {356b6d65-5574-4099-bc67-b30d62c2678d}, !- Handle
  0800|1700|Bank|default|elec_equip |1/1-12/31|Sun Rule, !- Name
  {227516ba-de47-4f67-8666-9da90b7497e3}, !- Schedule Ruleset Name
  0,                                      !- Rule Order
  {6bb3dd09-516b-436b-8605-e9120b7c84d4}, !- Day Schedule Name
  Yes,                                    !- Apply Sunday
  ,                                       !- Apply Monday
  ,                                       !- Apply Tuesday
  ,                                       !- Apply Wednesday
  ,                                       !- Apply Thursday
  ,                                       !- Apply Friday
  ,                                       !- Apply Saturday
  ,                                       !- Apply Holiday
  DateRange,                              !- Date Specification Type
  1,                                      !- Start Month
  1,                                      !- Start Day
  12,                                     !- End Month
  31;                                     !- End Day

OS:Schedule:Day,
  {6bb3dd09-516b-436b-8605-e9120b7c84d4}, !- Handle
  0800|1700|Bank|default|elec_equip |1/1-12/31|Sun, !- Name
  {c43c0e93-2ca1-4d63-b7ff-41ccca9be05a}, !- Schedule Type Limits Name
  ,                                       !- Interpolate to Timestep
  24,                                     !- Hour 1
  0,                                      !- Minute 1
  0.3;                                    !- Value Until Time 1

OS:Schedule:Rule,
  {d7603ba8-bf60-4771-9028-597644fce4e1}, !- Handle
  0800|1700|Bank|default|elec_equip |1/1-12/31|Sat Rule, !- Name
  {227516ba-de47-4f67-8666-9da90b7497e3}, !- Schedule Ruleset Name
  1,                                      !- Rule Order
  {80962cfb-ec67-4b28-86ec-a0a434d06791}, !- Day Schedule Name
  ,                                       !- Apply Sunday
  ,                                       !- Apply Monday
  ,                                       !- Apply Tuesday
  ,                                       !- Apply Wednesday
  ,                                       !- Apply Thursday
  ,                                       !- Apply Friday
  Yes,                                    !- Apply Saturday
  ,                                       !- Apply Holiday
  DateRange,                              !- Date Specification Type
  1,                                      !- Start Month
  1,                                      !- Start Day
  12,                                     !- End Month
  31;                                     !- End Day

OS:Schedule:Day,
  {80962cfb-ec67-4b28-86ec-a0a434d06791}, !- Handle
  0800|1700|Bank|default|elec_equip |1/1-12/31|Sat, !- Name
  {c43c0e93-2ca1-4d63-b7ff-41ccca9be05a}, !- Schedule Type Limits Name
  ,                                       !- Interpolate to Timestep
  5,                                      !- Hour 1
  0,                                      !- Minute 1
  0.3,                                    !- Value Until Time 1
  5,                                      !- Hour 2
  30,                                     !- Minute 2
  0.33,                                   !- Value Until Time 2
  6,                                      !- Hour 3
  0,                                      !- Minute 3
  0.37,                                   !- Value Until Time 3
  6,                                      !- Hour 4
  30,                                     !- Minute 4
  0.4,                                    !- Value Until Time 4
  7,                                      !- Hour 5
  0,                                      !- Minute 5
  0.43,                                   !- Value Until Time 5
  7,                                      !- Hour 6
  30,                                     !- Minute 6
  0.47,                                   !- Value Until Time 6
  13,                                     !- Hour 7
  0,                                      !- Minute 7
  0.5,                                    !- Value Until Time 7
  13,                                     !- Hour 8
  30,                                     !- Minute 8
  0.48,                                   !- Value Until Time 8
  14,                                     !- Hour 9
  0,                                      !- Minute 9
  0.46,                                   !- Value Until Time 9
  14,                                     !- Hour 10
  30,                                     !- Minute 10
  0.44,                                   !- Value Until Time 10
  15,                                     !- Hour 11
  0,                                      !- Minute 11
  0.42,                                   !- Value Until Time 11
  15,                                     !- Hour 12
  30,                                     !- Minute 12
  0.4,                                    !- Value Until Time 12
  16,                                     !- Hour 13
  0,                                      !- Minute 13
  0.38,                                   !- Value Until Time 13
  16,                                     !- Hour 14
  30,                                     !- Minute 14
  0.36,                                   !- Value Until Time 14
  17,                                     !- Hour 15
  0,                                      !- Minute 15
  0.34,                                   !- Value Until Time 15
  17,                                     !- Hour 16
  30,                                     !- Minute 16
  0.32,                                   !- Value Until Time 16
  24,                                     !- Hour 17
  0,                                      !- Minute 17
  0.3;                                    !- Value Until Time 17

OS:Schedule:Ruleset,
  {4ec54f2e-7f99-4a2b-a09a-bc79d4513b93}, !- Handle
  0800|1700|Bank|default|thermal_ctrl,    !- Name
  {9b0dbf16-5a34-4775-9894-79e22565cee4}, !- Schedule Type Limits Name
  {57b24d2c-46fb-4116-983f-3748d6c26bc8}, !- Default Day Schedule Name
  {af4192a8-b0d3-456c-9976-6caddcd630d4}, !- Summer Design Day Schedule Name
  {9683d156-7e9c-475f-8a56-77df4c94d640}; !- Winter Design Day Schedule Name

OS:ScheduleTypeLimits,
  {9b0dbf16-5a34-4775-9894-79e22565cee4}, !- Handle
  Dimensionless Schedule Type Limits,     !- Name
  ,                                       !- Lower Limit Value {BasedOnField A4}
  ,                                       !- Upper Limit Value {BasedOnField A4}
  Continuous,                             !- Numeric Type
  Dimensionless;                          !- Unit Type

OS:Schedule:Day,
  {57b24d2c-46fb-4116-983f-3748d6c26bc8}, !- Handle
  0800|1700|Bank|default|thermal_ctrl |default, !- Name
  {9b0dbf16-5a34-4775-9894-79e22565cee4}, !- Schedule Type Limits Name
  ,                                       !- Interpolate to Timestep
  24,                                     !- Hour 1
  0,                                      !- Minute 1
  4;                                      !- Value Until Time 1

OS:Schedule:Day,
  {af4192a8-b0d3-456c-9976-6caddcd630d4}, !- Handle
  0800|1700|Bank|default|thermal_ctrl Summer Design Day, !- Name
  {9b0dbf16-5a34-4775-9894-79e22565cee4}, !- Schedule Type Limits Name
  ,                                       !- Interpolate to Timestep
  24,                                     !- Hour 1
  0,                                      !- Minute 1
  4;                                      !- Value Until Time 1

OS:Schedule:Day,
  {9683d156-7e9c-475f-8a56-77df4c94d640}, !- Handle
  0800|1700|Bank|default|thermal_ctrl Winter Design Day, !- Name
  {9b0dbf16-5a34-4775-9894-79e22565cee4}, !- Schedule Type Limits Name