
OS:Version,
  {2e6779dd-4b6f-4512-86e2-c4606ccca605}, !- Handle
  1.6.0;                                  !- Version Identifier

OS:ClimateZones,
  {135edfab-17e7-40db-a436-27d385a8cd6d}, !- Handle
  ,                                       !- Active Institution
  ,                                       !- Active Year
  ASHRAE,                                 !- Climate Zone Institution Name 1
  ANSI/ASHRAE Standard 169,               !- Climate Zone Document Name 1
  2006,                                   !- Climate Zone Document Year 1
  ,                                       !- Climate Zone Value 1
  CEC,                                    !- Climate Zone Institution Name 2
  California Climate Zone Descriptions,   !- Climate Zone Document Name 2
  1995,                                   !- Climate Zone Document Year 2
  ;                                       !- Climate Zone Value 2

OS:YearDescription,
  {513d8dda-86cb-442a-b01c-1f7f0e0ac70e}; !- Handle

OS:RadianceParameters,
  {270a96f1-3c86-4b75-a667-cdf22790e2c8}, !- Handle
  1,                                      !- Accumulated Rays per Record
  0,                                      !- Direct Threshold
  1,                                      !- Direct Certainty
  1,                                      !- Direct Jitter
  1,                                      !- Direct Pretest
  6,                                      !- Ambient Bounces VMX
  2,                                      !- Ambient Bounces DMX
  4050,                                   !- Ambient Divisions VMX
  512,                                    !- Ambient Divisions DMX
  256,                                    !- Ambient Supersamples
  0.001,                                  !- Limit Weight VMX
  0.001,                                  !- Limit Weight DMX
  500,                                    !- Klems Sampling Density
  146;                                    !- Sky Discretization Resolution

OS:SimulationControl,
  {2c487a4c-bac9-4ac5-b669-1e49d9da7c2b}, !- Handle
  ,                                       !- Do Zone Sizing Calculation
  ,                                       !- Do System Sizing Calculation
  ,                                       !- Do Plant Sizing Calculation
  No,                                     !- Run Simulation for Sizing Periods
  ,                                       !- Run Simulation for Weather File Run Periods
  0.04,                                   !- Loads Convergence Tolerance Value
  ,                                       !- Temperature Convergence Tolerance Value {deltaC}
  ,                                       !- Solar Distribution
  ,                                       !- Maximum Number of Warmup Days
  2;                                      !- Minimum Number of Warmup Days

OS:Sizing:Parameters,
  {dde5af6f-7923-4600-a28a-7556673a0266}, !- Handle
  1.25,                                   !- Heating Sizing Factor
  1.15;                                   !- Cooling Sizing Factor

OS:ProgramControl,
  {05027a99-f2b3-4aeb-afc6-1425fbb4371d}; !- Handle

OS:Timestep,
  {4ebc9f1e-4707-402e-9844-67eb1ffbd522}, !- Handle
  2;                                      !- Number of Timesteps per Hour

OS:OutputControl:ReportingTolerances,
  {65797aa2-06a9-45fe-b69d-bc6e060399d3}; !- Handle

OS:ConvergenceLimits,
  {9fc11aba-8822-4f3d-970c-46391ba4040d}; !- Handle

OS:ShadowCalculation,
  {ca758bea-4416-4626-9bba-3d8795c79bd6}, !- Handle
  7,                                      !- Calculation Frequency
  15000;                                  !- Maximum Figures in Shadow Overlap Calculations

OS:SurfaceConvectionAlgorithm:Inside,
  {aaabfc36-718a-4ab0-b622-f186ebb45230}, !- Handle
  TARP;                                   !- Algorithm

OS:SurfaceConvectionAlgorithm:Outside,
  {9a0a9f6f-4bbd-4b12-a121-9492a1fcd7d6}, !- Handle
  DOE-2;                                  !- Algorithm

OS:HeatBalanceAlgorithm,
  {9d93e563-e1e0-46d7-9e39-d1c8aceb7212}, !- Handle
  ConductionTransferFunction,             !- Algorithm
  200;                                    !- Surface Temperature Upper Limit {F}

OS:ZoneAirHeatBalanceAlgorithm,
  {8520d93e-310f-4696-9bcd-36228bfdd743}, !- Handle
  AnalyticalSolution;                     !- Algorithm

OS:ZoneAirContaminantBalance,
  {eb5fc3ae-fb22-4160-8fcb-3e3b22b000d3}; !- Handle

OS:ZoneCapacitanceMultiplier:ResearchSpecial,
  {4020ce4f-5a7a-4849-8028-8305d7b751b1}, !- Handle
  ,                                       !- Temperature Capacity Multiplier
  ,                                       !- Humidity Capacity Multiplier
  ;                                       !- Carbon Dioxide Capacity Multiplier

OS:RunPeriod,
  {28df894d-6af9-4fb8-8f56-df1753344aa3}, !- Handle
  Run Period 1,                           !- Name
  1,                                      !- Begin Month
  1,                                      !- Begin Day of Month
  12,                                     !- End Month
  31,                                     !- End Day of Month
  ,                                       !- Use Weather File Holidays and Special Days
  ,                                       !- Use Weather File Daylight Saving Period
  ,                                       !- Apply Weekend Holiday Rule
  ,                                       !- Use Weather File Rain Indicators
  ,                                       !- Use Weather File Snow Indicators
  ;                                       !- Number of Times Runperiod to be Repeated

OS:Building,
  {bf305633-c5a1-4881-9edf-ca5e1a8e1274}, !- Handle
  Building 1,                             !- Name
  ,                                       !- Building Sector Type
  ,                                       !- North Axis {deg}
  ,                                       !- Nominal Floor to Floor Height {m}
  ,                                       !- Space Type Name
  ,                                       !- Default Construction Set Name
  {47d3a22a-484c-4b9e-b5f0-f058b5adefff}, !- Default Schedule Set Name
  ,                                       !- Standards Number of Stories
  ,                                       !- Standards Number of Above Ground Stories
  ChildCare;                              !- Standards Building Type

OS:LifeCycleCost:Parameters,
  {231cf8a0-f0e7-4251-a99f-11f0d464e661}, !- Handle
  FEMP,                                   !- Analysis Type
  ,                                       !- Discounting Convention
  ,                                       !- Inflation Approach
  ,                                       !- Real Discount Rate
  ,                                       !- Nominal Discount Rate
  ,                                       !- Inflation
  ,                                       !- Base Date Month
  ,                                       !- Base Date Year
  ,                                       !- Service Date Month
  ,                                       !- Service Date Year
  ,                                       !- Length of Study Period in Years
  ,                                       !- Tax Rate
  ,                                       !- Depreciation Method
  Yes;                                    !- Use NIST Fuel Escalation Rates

OS:Facility,
  {3ba8e45b-b833-44eb-a723-ea6c3946dc96}; !- Handle

OS:SpaceType,
  {3f280e64-9b90-4896-b193-c56c172f354a}, !- Handle
  ChildCare|BlendEdu|DOE Ref Pre-1980|ASHRAE 169-2006-5A, !- Name
  {16d79525-610d-4b3e-ba17-2af4d9835769}, !- Default Construction Set Name
  ,                                       !- Default Schedule Set Name
  {a909a77b-5c31-4a96-a5c2-aa55f57ae249}, !- Group Rendering Name
  {46f816d8-fe76-4f4b-8112-b7f28891c0fa}, !- Design Specification Outdoor Air Object Name
  ChildCare,                              !- Standards Building Type
  BlendEdu;                               !- Standards Space Type

OS:Rendering:Color,
  {a909a77b-5c31-4a96-a5c2-aa55f57ae249}, !- Handle
  Rendering Color 1,                      !- Name
  120,                                    !- Rendering Red Value
  230,                                    !- Rendering Green Value
  199;                                    !- Rendering Blue Value

OS:SpaceType,
  {331640b4-7f3d-4e84-90aa-48a8af92c6f0}, !- Handle
  ChildCare|Office|DOE Ref Pre-1980|ASHRAE 169-2006-5A, !- Name
  {16d79525-610d-4b3e-ba17-2af4d9835769}, !- Default Construction Set Name
  {b82d2707-eff9-481c-854c-d4304d710e4b}, !- Default Schedule Set Name
  {14d64ab5-e3e7-42db-bf65-965a322e5928}, !- Group Rendering Name
  {fa9f17fa-60be-418b-a201-2949844aed2b}, !- Design Specification Outdoor Air Object Name
  ChildCare,                              !- Standards Building Type
  Office;                                 !- Standards Space Type

OS:Rendering:Color,
  {14d64ab5-e3e7-42db-bf65-965a322e5928}, !- Handle
  Rendering Color 2,                      !- Name
  120,                                    !- Rendering Red Value
  230,                                    !- Rendering Green Value
  199;                                    !- Rendering Blue Value

OS:SpaceType,
  {f73f3124-d479-4884-8ad9-95c0d5606793}, !- Handle
  ChildCare|Restroom|DOE Ref Pre-1980|ASHRAE 169-2006-5A, !- Name
  {16d79525-610d-4b3e-ba17-2af4d9835769}, !- Default Construction Set Name
  {50ce34a3-49ff-4a60-8220-89ed930f7d5c}, !- Default Schedule Set Name
  {ec5cb6af-38d5-432f-8fc1-bd74a3f41a10}, !- Group Rendering Name
  {fd4709a3-b122-4a45-997d-ea02f34d0e8d}, !- Design Specification Outdoor Air Object Name
  ChildCare,                              !- Standards Building Type
  Restroom;                               !- Standards Space Type

OS:Rendering:Color,
  {ec5cb6af-38d5-432f-8fc1-bd74a3f41a10}, !- Handle
  Rendering Color 3,                      !- Name
  169,                                    !- Rendering Red Value
  169,                                    !- Rendering Green Value
  31;                                     !- Rendering Blue Value

OS:Schedule:Ruleset,
  {8ba728fb-004f-4cd2-9d88-a0d8653ff765}, !- Handle
  0600|1900|ChildCare|default|hoo,        !- Name
  {b8deeb8e-fec6-46a9-a974-a07fdfe8ca1b}, !- Schedule Type Limits Name
  {88f480be-6dd7-4947-a8b6-e267c7576214}, !- Default Day Schedule Name
  {8e9be6b4-4aca-4727-b0a1-50393e83ccb7}, !- Summer Design Day Schedule Name
  {040a1186-c650-4f74-b38e-36630322aec8}; !- Winter Design Day Schedule Name

OS:Schedule:Day,
  {88f480be-6dd7-4947-a8b6-e267c7576214}, !- Handle
  0600|1900|ChildCare|default|hoo Schedule Week Day, !- Name
  {b8deeb8e-fec6-46a9-a974-a07fdfe8ca1b}, !- Schedule Type Limits Name
  ,                                       !- Interpolate to Timestep
  6,                                      !- Hour 1
  0,                                      !- Minute 1
  0,                                      !- Value Until Time 1
  19,                                     !- Hour 2
  0,                                      !- Minute 2
  1,                                      !- Value Until Time 2
  24,                                     !- Hour 3
  0,                                      !- Minute 3
  0;                                      !- Value Until Time 3

OS:Schedule:Day,
  {aae400c7-9f69-45fa-a748-9f5e984832b8}, !- Handle
  Schedule Day 2,                         !- Name
  ,                                       !- Schedule Type Limits Name
  ,                                       !- Interpolate to Timestep
  24,                                     !- Hour 1
  0,                                      !- Minute 1
  0;                                      !- Value Until Time 1

OS:Schedule:Day,
  {040a1186-c650-4f74-b38e-36630322aec8}, !- Handle
  0600|1900|ChildCare|default|hoo Winter Design Day, !- Name
  {b8deeb8e-fec6-46a9-a974-a07fdfe8ca1b}, !- Schedule Type Limits Name
  ,                                       !- Interpolate to Timestep
  24,                                     !- Hour 1
  0,                                      !- Minute 1
  0;                                      !- Value Until Time 1

OS:Schedule:Day,
  {aec45b45-f56b-481c-b1e9-d8bcd2caf40b}, !- Handle
  Schedule Day 3,                         !- Name
  ,                                       !- Schedule Type Limits Name
  ,                                       !- Interpolate to Timestep
  24,                                     !- Hour 1
  0,                                      !- Minute 1
  0;                                      !- Value Until Time 1

OS:Schedule:Day,
  {8e9be6b4-4aca-4727-b0a1-50393e83ccb7}, !- Handle
  0600|1900|ChildCare|default|hoo Summer Design Day, !- Name
  {b8deeb8e-fec6-46a9-a974-a07fdfe8ca1b}, !- Schedule Type Limits Name
  ,                                       !- Interpolate to Timestep
  24,                                     !- Hour 1
  0,                                      !- Minute 1
  1;                                      !- Value Until Time 1

OS:DefaultScheduleSet,
  {47d3a22a-484c-4b9e-b5f0-f058b5adefff}, !- Handle
  Building Hours of Operation,            !- Name
  {8ba728fb-004f-4cd2-9d88-a0d8653ff765}, !- Hours of Operation Schedule Name
  ,                                       !- Number of People Schedule Name
  ,                                       !- People Activity Level Schedule Name
  ,                                       !- Lighting Schedule Name
  ,                                       !- Electric Equipment Schedule Name
  ,                                       !- Gas Equipment Schedule Name
  ,                                       !- Hot Water Equipment Schedule Name
  ,                                       !- Infiltration Schedule Name
  ,                                       !- Steam Equipment Schedule Name
  ;                                       !- Other Equipment Schedule Name

OS:ScheduleTypeLimits,
  {b8deeb8e-fec6-46a9-a974-a07fdfe8ca1b}, !- Handle
  OnOff,                                  !- Name
  0,                                      !- Lower Limit Value {BasedOnField A4}
  1,                                      !- Upper Limit Value {BasedOnField A4}
  Discrete,                               !- Numeric Type
  Availability;                           !- Unit Type

OS:Schedule:Ruleset,
  {73109a4d-15da-47ea-aba8-9fb7a89a6eed}, !- Handle
  0600|1900|ChildCare|default|activity,   !- Name
  {a1708189-8943-4ad2-8f01-618253c66183}, !- Schedule Type Limits Name
  {f1563412-907d-4a64-bfd3-8ed8f719348a}, !- Default Day Schedule Name
  {860c402b-6343-4d5e-8710-9a85c81359a3}, !- Summer Design Day Schedule Name
  {81fb8a51-0295-42d9-be57-d16c4ab88711}; !- Winter Design Day Schedule Name

OS:ScheduleTypeLimits,
  {a1708189-8943-4ad2-8f01-618253c66183}, !- Handle
  People Activity Type Limits,            !- Name
  0,                                      !- Lower Limit Value {BasedOnField A4}
  ,                                       !- Upper Limit Value {BasedOnField A4}
  Continuous,                             !- Numeric Type
  ActivityLevel;                          !- Unit Type

OS:Schedule:Day,
  {f1563412-907d-4a64-bfd3-8ed8f719348a}, !- Handle
  0600|1900|ChildCare|default|activity |default, !- Name
  {a1708189-8943-4ad2-8f01-618253c66183}, !- Schedule Type Limits Name
  ,                                       !- Interpolate to Timestep
  24,                                     !- Hour 1
  0,                                      !- Minute 1
  120;                                    !- Value Until Time 1

OS:Schedule:Day,
  {860c402b-6343-4d5e-8710-9a85c81359a3}, !- Handle
  0600|1900|ChildCare|default|activity Summer Design Day, !- Name
  {a1708189-8943-4ad2-8f01-618253c66183}, !- Schedule Type Limits Name
  ,                                       !- Interpolate to Timestep
  24,                                     !- Hour 1
  0,                                      !- Minute 1
  120;                                    !- Value Until Time 1

OS:Schedule:Day,
  {81fb8a51-0295-42d9-be57-d16c4ab88711}, !- Handle
  0600|1900|ChildCare|default|activity Winter Design Day, !- Name
  {a1708189-8943-4ad2-8f01-618253c66183}, !- Schedule Type Limits Name
  ,                                       !- Interpolate to Timestep
  24,                                     !- Hour 1
  0,                                      !- Minute 1
  120;                                    !- Value Until Time 1

OS:Schedule:Ruleset,
  {14a715a8-5daf-4989-9308-ed1f6c356465}, !- Handle
  0600|1900|ChildCare|default|infiltration, !- Name
  {b0ffcc60-a0b3-4515-a513-b5dde7faa6ac}, !- Schedule Type Limits Name
  {9cf8f862-ef90-47d3-9dc3-33eb8cca3890}, !- Default Day Schedule Name
  {91afbb6f-4138-4f43-a521-5d2c9fa73e44}, !- Summer Design Day Schedule Name
  {1f33036b-f7e7-499a-bd7e-cf89a36e264a}; !- Winter Design Day Schedule Name

OS:ScheduleTypeLimits,
  {b0ffcc60-a0b3-4515-a513-b5dde7faa6ac}, !- Handle
  Fraction Schedule Type Limits,          !- Name
  0,                                      !- Lower Limit Value {BasedOnField A4}
  1,                                      !- Upper Limit Value {BasedOnField A4}
  Continuous,                             !- Numeric Type
  Dimensionless;                          !- Unit Type

OS:Schedule:Day,
  {9cf8f862-ef90-47d3-9dc3-33eb8cca3890}, !- Handle
  0600|1900|ChildCare|default|infiltration |default, !- Name
  {b0ffcc60-a0b3-4515-a513-b5dde7faa6ac}, !- Schedule Type Limits Name
  ,                                       !- Interpolate to Timestep
  5,                                      !- Hour 1
  0,                                      !- Minute 1
  1,                                      !- Value Until Time 1
  22,                                     !- Hour 2
  0,                                      !- Minute 2
  0.5,                                    !- Value Until Time 2
  24,                                     !- Hour 3
  0,                                      !- Minute 3
  1;                                      !- Value Until Time 3

OS:Schedule:Day,
  {91afbb6f-4138-4f43-a521-5d2c9fa73e44}, !- Handle
  0600|1900|ChildCare|default|infiltration Summer Design Day, !- Name
  {b0ffcc60-a0b3-4515-a513-b5dde7faa6ac}, !- Schedule Type Limits Name
  ,                                       !- Interpolate to Timestep
  5,                                      !- Hour 1
  0,                                      !- Minute 1
  1,                                      !- Value Until Time 1
  22,                                     !- Hour 2
  0,                                      !- Minute 2
  0.5,                                    !- Value Until Time 2
  24,                                     !- Hour 3
  0,                                      !- Minute 3
  1;                                      !- Value Until Time 3

OS:Schedule:Day,
  {1f33036b-f7e7-499a-bd7e-cf89a36e264a}, !- Handle
  0600|1900|ChildCare|default|infiltration Winter Design Day, !- Name
  {b0ffcc60-a0b3-4515-a513-b5dde7faa6ac}, !- Schedule Type Limits Name
  ,                                       !- Interpolate to Timestep
  5,                                      !- Hour 1
  0,                                      !- Minute 1
  1,                                      !- Value Until Time 1
  22,                                     !- Hour 2
  0,                                      !- Minute 2
  0.5,                                    !- Value Until Time 2
  24,                                     !- Hour 3
  0,                                      !- Minute 3
  1;                                      !- Value Until Time 3

OS:Schedule:Ruleset,
  {5ed74b94-1f6b-4845-a363-efd60550c6b1}, !- Handle
  0600|1900|ChildCare|default|rh,         !- Name
  {cf4833e3-d968-4b2c-96d1-24a6eebfe83c}, !- Schedule Type Limits Name
  {94cc8640-a97a-4bb7-be96-05783de026cf}, !- Default Day Schedule Name
  {b79259ab-8e25-4c77-a25a-e6bdbdfb75c7}, !- Summer Design Day Schedule Name
  {110c0fde-5a42-4b40-9064-683311887682}; !- Winter Design Day Schedule Name

OS:ScheduleTypeLimits,
  {cf4833e3-d968-4b2c-96d1-24a6eebfe83c}, !- Handle
  Dimensionless Schedule Type Limits,     !- Name
  ,                                       !- Lower Limit Value {BasedOnField A4}
  ,                                       !- Upper Limit Value {BasedOnField A4}
  Continuous,                             !- Numeric Type
  Dimensionless;                          !- Unit Type

OS:Schedule:Day,
  {94cc8640-a97a-4bb7-be96-05783de026cf}, !- Handle
  0600|1900|ChildCare|default|rh |default, !- Name
  {cf4833e3-d968-4b2c-96d1-24a6eebfe83c}, !- Schedule Type Limits Name
  ,                                       !- Interpolate to Timestep
  24,                                     !- Hour 1
  0,                                      !- Minute 1
  50;                                     !- Value Until Time 1

OS:Schedule:Day,
  {b79259ab-8e25-4c77-a25a-e6bdbdfb75c7}, !- Handle
  0600|1900|ChildCare|default|rh Summer Design Day, !- Name
  {cf4833e3-d968-4b2c-96d1-24a6eebfe83c}, !- Schedule Type Limits Name
  ,                                       !- Interpolate to Timestep
  24,                                     !- Hour 1
  0,                                      !- Minute 1
  50;                                     !- Value Until Time 1

OS:Schedule:Day,
  {110c0fde-5a42-4b40-9064-683311887682}, !- Handle
  0600|1900|ChildCare|default|rh Winter Design Day, !- Name
  {cf4833e3-d968-4b2c-96d1-24a6eebfe83c}, !- Schedule Type Limits Name
  ,                                       !- Interpolate to Timestep
  24,                                     !- Hour 1
  0,                                      !- Minute 1
  50;                                     !- Value Until Time 1

OS:Schedule:Ruleset,
  {604cb5d3-e1d4-4d7b-86fa-83bd1b4b21bf}, !- Handle
  0600|1900|ChildCare|default|air_velocity, !- Name
  {cf4833e3-d968-4b2c-96d1-24a6eebfe83c}, !- Schedule Type Limits Name
  {615c6900-ff2f-455b-ad8a-22a61e7181ac}, !- Default Day Schedule Name
  {7fd31838-7fee-4f24-9691-2f3ea15e637b}, !- Summer Design Day Schedule Name
  {6d20c14a-f155-43f8-8c28-e31c2e768945}; !- Winter Design Day Schedule Name

OS:Schedule:Day,
  {615c6900-ff2f-455b-ad8a-22a61e7181ac}, !- Handle
  0600|1900|ChildCare|default|air_velocity |default, !- Name
  {cf4833e3-d968-4b2c-96d1-24a6eebfe83c}, !- Schedule Type Limits Name
  ,                                       !- Interpolate to Timestep
  24,                                     !- Hour 1
  0,                                      !- Minute 1
  0.200152;                               !- Value Until Time 1

OS:Schedule:Day,
  {7fd31838-7fee-4f24-9691-2f3ea15e637b}, !- Handle
  0600|1900|ChildCare|default|air_velocity Summer Design Day, !- Name
  {cf4833e3-d968-4b2c-96d1-24a6eebfe83c}, !- Schedule Type Limits Name
  ,                                       !- Interpolate to Timestep
  24,                                     !- Hour 1
  0,                                      !- Minute 1
  0.200152;                               !- Value Until Time 1

OS:Schedule:Day,
  {6d20c14a-f155-43f8-8c28-e31c2e768945}, !- Handle
  0600|1900|ChildCare|default|air_velocity Winter Design Day, !- Name
  {cf4833e3-d968-4b2c-96d1-24a6eebfe83c}, !- Schedule Type Limits Name
  ,                                       !- Interpolate to Timestep
  24,                                     !- Hour 1
  0,                                      !- Minute 1
  0.200152;                               !- Value Until Time 1

OS:Schedule:Ruleset,
  {0655cf91-8f8f-4eaa-bbd8-f9f63e740d23}, !- Handle
  0600|1900|ChildCare|default|swh_target_temp, !- Name
  {5b8fb42e-9d2b-47e1-930e-c4753980ad15}, !- Schedule Type Limits Name
  {f6d1a339-465c-4168-ad00-3b090ae2540c}, !- Default Day Schedule Name
  {e848c446-b9db-49bd-aee9-f7288dfbeeec}, !- Summer Design Day Schedule Name
  {301db391-6299-4f97-9c83-9a5cdf0f447b}; !- Winter Design Day Schedule Name

OS:ScheduleTypeLimits,
  {5b8fb42e-9d2b-47e1-930e-c4753980ad15}, !- Handle
  Temperature Schedule Type Limits,       !- Name
  ,                                       !- Lower Limit Value {BasedOnField A4}
  ,                                       !- Upper Limit Value {BasedOnField A4}
  Continuous,                             !- Numeric Type
  Temperature;                            !- Unit Type

OS:Schedule:Day,
  {f6d1a339-465c-4168-ad00-3b090ae2540c}, !- Handle
  0600|1900|ChildCare|default|swh_target_temp |default, !- Name
  {5b8fb42e-9d2b-47e1-930e-c4753980ad15}, !- Schedule Type Limits Name
  ,                                       !- Interpolate to Timestep
  24,                                     !- Hour 1
  0,                                      !- Minute 1
  60.0000000000001;                       !- Value Until Time 1

OS:Schedule:Day,
  {e848c446-b9db-49bd-aee9-f7288dfbeeec}, !- Handle
  0600|1900|ChildCare|default|swh_target_temp Summer Design Day, !- Name
  {5b8fb42e-9d2b-47e1-930e-c4753980ad15}, !- Schedule Type Limits Name
  ,                                       !- Interpolate to Timestep
  24,                                     !- Hour 1
  0,                                      !- Minute 1
  60.0000000000001;                       !- Value Until Time 1

OS:Schedule:Day,
  {301db391-6299-4f97-9c83-9a5cdf0f447b}, !- Handle
  0600|1900|ChildCare|default|swh_target_temp Winter Design Day, !- Name
  {5b8fb42e-9d2b-47e1-930e-c4753980ad15}, !- Schedule Type Limits Name
  ,                                       !- Interpolate to Timestep
  24,                                     !- Hour 1
  0,                                      !- Minute 1
  60.0000000000001;                       !- Value Until Time 1

OS:Schedule:Ruleset,
  {c68ca79e-780a-42b0-a530-3424135b67f6}, !- Handle
  0600|1900|ChildCare|default|htg_setpoint, !- Name
  {628e0038-727d-4443-bbad-7962083c080e}, !- Schedule Type Limits Name
  {ac096c82-954c-4fd4-b770-573efa66c98b}, !- Default Day Schedule Name
  {33b65d24-6241-4660-9b68-48e2fd96e427}, !- Summer Design Day Schedule Name
  {a6aeddad-8993-4d3c-a7b9-73361bf95d8b}; !- Winter Design Day Schedule Name

OS:ScheduleTypeLimits,
  {628e0038-727d-4443-bbad-7962083c080e}, !- Handle
  Thermostat Heating Setpoint Schedule Type Limits, !- Name
  0,                                      !- Lower Limit Value {BasedOnField A4}
  100,                                    !- Upper Limit Value {BasedOnField A4}
  Continuous,                             !- Numeric Type
  Temperature;                            !- Unit Type

OS:Schedule:Day,
  {ac096c82-954c-4fd4-b770-573efa66c98b}, !- Handle
  0600|1900|ChildCare|default|htg_setpoint |default, !- Name
  {628e0038-727d-4443-bbad-7962083c080e}, !- Schedule Type Limits Name
  ,                                       !- Interpolate to Timestep
  24,                                     !- Hour 1
  0,                                      !- Minute 1
  21.0000000000001;                       !- Value Until Time 1

OS:Schedule:Day,
  {33b65d24-6241-4660-9b68-48e2fd96e427}, !- Handle
  0600|1900|ChildCare|default|htg_setpoint Summer Design Day, !- Name
  {628e0038-727d-4443-bbad-7962083c080e}, !- Schedule Type Limits Name
  ,                                       !- Interpolate to Timestep
  24,                                     !- Hour 1
  0,                                      !- Minute 1
  21.0000000000001;                       !- Value Until Time 1

OS:Schedule:Day,
  {a6aeddad-8993-4d3c-a7b9-73361bf95d8b}, !- Handle
  0600|1900|ChildCare|default|htg_setpoint Winter Design Day, !- Name
  {628e0038-727d-4443-bbad-7962083c080e}, !- Schedule Type Limits Name
  ,                                       !- Interpolate to Timestep
  24,                                     !- Hour 1
  0,                                      !- Minute 1
  21.0000000000001;                       !- Value Until Time 1

OS:Schedule:Ruleset,
  {efe47cce-d15e-4964-b8b2-f93c9095f68f}, !- Handle
  0600|1900|ChildCare|default|occ,        !- Name
  {ae1500d7-efd0-4f88-b2a9-7a924b0a1b2c}, !- Schedule Type Limits Name
  {6139ad73-68cd-4b28-a559-6a005a4896b5}, !- Default Day Schedule Name
  {d68b9f3c-326c-4647-b757-799132be83e7}, !- Summer Design Day Schedule Name
  {ee0c9443-5612-4232-90b7-d4b75f872cf9}; !- Winter Design Day Schedule Name

OS:ScheduleTypeLimits,
  {ae1500d7-efd0-4f88-b2a9-7a924b0a1b2c}, !- Handle
  Occupancy Schedule Type Limits,         !- Name
  0,                                      !- Lower Limit Value {BasedOnField A4}
  1,                                      !- Upper Limit Value {BasedOnField A4}
  Continuous,                             !- Numeric Type
  Dimensionless;                          !- Unit Type

OS:Schedule:Day,
  {6139ad73-68cd-4b28-a559-6a005a4896b5}, !- Handle
  0600|1900|ChildCare|default|occ |default, !- Name
  {ae1500d7-efd0-4f88-b2a9-7a924b0a1b2c}, !- Schedule Type Limits Name
  ,                                       !- Interpolate to Timestep
  6,                                      !- Hour 1
  0,                                      !- Minute 1
  0,                                      !- Value Until Time 1
  19,                                     !- Hour 2
  0,                                      !- Minute 2
  0.75,                                   !- Value Until Time 2
  22,                                     !- Hour 3
  0,                                      !- Minute 3
  0.15,                                   !- Value Until Time 3
  24,                                     !- Hour 4
  0,                                      !- Minute 4
  0;                                      !- Value Until Time 4

OS:Schedule:Day,
  {d68b9f3c-326c-4647-b757-799132be83e7}, !- Handle
  0600|1900|ChildCare|default|occ Summer Design Day, !- Name
  {ae1500d7-efd0-4f88-b2a9-7a924b0a1b2c}, !- Schedule Type Limits Name
  ,                                       !- Interpolate to Timestep
  6,                                      !- Hour 1
  0,                                      !- Minute 1