
OS:Version,
  {554050f6-59b8-4390-85df-baf50ebcbdc3}, !- Handle
  1.5.5;                                  !- Version Identifier

OS:ClimateZones,
  {135edfab-17e7-40db-a436-27d385a8cd6d}, !- Handle
  ,                                       !- Active Institution
  ,                                       !- Active Year
  ASHRAE,                                 !- Climate Zone Institution Name 1
  ANSI/ASHRAE Standard 169,               !- Climate Zone Document Name 1
  2006,                                   !- Climate Zone Document Year 1
  ,                                       !- Climate Zone Value 1
  CEC,                                    !- Climate Zone Institution Name 2
  California Climate Zone Descriptions,   !- Climate Zone Document Name 2
  1995,                                   !- Climate Zone Document Year 2
  ;                                       !- Climate Zone Value 2

OS:YearDescription,
  {513d8dda-86cb-442a-b01c-1f7f0e0ac70e}; !- Handle

OS:RadianceParameters,
  {270a96f1-3c86-4b75-a667-cdf22790e2c8}, !- Handle
  1,                                      !- Accumulated Rays per Record
  0,                                      !- Direct Threshold
  1,                                      !- Direct Certainty
  1,                                      !- Direct Jitter
  1,                                      !- Direct Pretest
  6,                                      !- Ambient Bounces VMX
  2,                                      !- Ambient Bounces DMX
  4050,                                   !- Ambient Divisions VMX
  512,                                    !- Ambient Divisions DMX
  256,                                    !- Ambient Supersamples
  0.001,                                  !- Limit Weight VMX
  0.001,                                  !- Limit Weight DMX
  500,                                    !- Klems Sampling Density
  146;                                    !- Sky Discretization Resolution

OS:SimulationControl,
  {2c487a4c-bac9-4ac5-b669-1e49d9da7c2b}, !- Handle
  ,                                       !- Do Zone Sizing Calculation
  ,                                       !- Do System Sizing Calculation
  ,                                       !- Do Plant Sizing Calculation
  No,                                     !- Run Simulation for Sizing Periods
  ,                                       !- Run Simulation for Weather File Run Periods
  0.04,                                   !- Loads Convergence Tolerance Value
  ,                                       !- Temperature Convergence Tolerance Value {deltaC}
  ,                                       !- Solar Distribution
  ,                                       !- Maximum Number of Warmup Days
  2;                                      !- Minimum Number of Warmup Days

OS:Sizing:Parameters,
  {dde5af6f-7923-4600-a28a-7556673a0266}, !- Handle
  1.25,                                   !- Heating Sizing Factor
  1.15;                                   !- Cooling Sizing Factor

OS:ProgramControl,
  {05027a99-f2b3-4aeb-afc6-1425fbb4371d}; !- Handle

OS:Timestep,
  {4ebc9f1e-4707-402e-9844-67eb1ffbd522}, !- Handle
  2;                                      !- Number of Timesteps per Hour

OS:OutputControl:ReportingTolerances,
  {65797aa2-06a9-45fe-b69d-bc6e060399d3}; !- Handle

OS:ConvergenceLimits,
  {9fc11aba-8822-4f3d-970c-46391ba4040d}; !- Handle

OS:ShadowCalculation,
  {ca758bea-4416-4626-9bba-3d8795c79bd6}, !- Handle
  7,                                      !- Calculation Frequency
  15000;                                  !- Maximum Figures in Shadow Overlap Calculations

OS:SurfaceConvectionAlgorithm:Inside,
  {aaabfc36-718a-4ab0-b622-f186ebb45230}, !- Handle
  TARP;                                   !- Algorithm

OS:SurfaceConvectionAlgorithm:Outside,
  {9a0a9f6f-4bbd-4b12-a121-9492a1fcd7d6}, !- Handle
  DOE-2;                                  !- Algorithm

OS:HeatBalanceAlgorithm,
  {9d93e563-e1e0-46d7-9e39-d1c8aceb7212}, !- Handle
  ConductionTransferFunction,             !- Algorithm
  200;                                    !- Surface Temperature Upper Limit {F}

OS:ZoneAirHeatBalanceAlgorithm,
  {8520d93e-310f-4696-9bcd-36228bfdd743}, !- Handle
  AnalyticalSolution;                     !- Algorithm

OS:ZoneAirContaminantBalance,
  {eb5fc3ae-fb22-4160-8fcb-3e3b22b000d3}; !- Handle

OS:ZoneCapacitanceMultiplier:ResearchSpecial,
  {4020ce4f-5a7a-4849-8028-8305d7b751b1}, !- Handle
  ,                                       !- Temperature Capacity Multiplier
  ,                                       !- Humidity Capacity Multiplier
  ;                                       !- Carbon Dioxide Capacity Multiplier

OS:RunPeriod,
  {28df894d-6af9-4fb8-8f56-df1753344aa3}, !- Handle
  Run Period 1,                           !- Name
  1,                                      !- Begin Month
  1,                                      !- Begin Day of Month
  12,                                     !- End Month
  31,                                     !- End Day of Month
  ,                                       !- Use Weather File Holidays and Special Days
  ,                                       !- Use Weather File Daylight Saving Period
  ,                                       !- Apply Weekend Holiday Rule
  ,                                       !- Use Weather File Rain Indicators
  ,                                       !- Use Weather File Snow Indicators
  ;                                       !- Number of Times Runperiod to be Repeated

OS:Building,
  {bf305633-c5a1-4881-9edf-ca5e1a8e1274}, !- Handle
  Building 1,                             !- Name
  ,                                       !- Building Sector Type
  ,                                       !- North Axis {deg}
  ,                                       !- Nominal Floor to Floor Height {m}
  ,                                       !- Space Type Name
  ,                                       !- Default Construction Set Name
  {0e949d43-fad5-40f3-9b86-ba8948043f50}, !- Default Schedule Set Name
  ,                                       !- Standards Number of Stories
  ,                                       !- Standards Number of Above Ground Stories
  ChildCare;                              !- Standards Building Type

OS:LifeCycleCost:Parameters,
  {231cf8a0-f0e7-4251-a99f-11f0d464e661}, !- Handle
  FEMP,                                   !- Analysis Type
  ,                                       !- Discounting Convention
  ,                                       !- Inflation Approach
  ,                                       !- Real Discount Rate
  ,                                       !- Nominal Discount Rate
  ,                                       !- Inflation
  ,                                       !- Base Date Month
  ,                                       !- Base Date Year
  ,                                       !- Service Date Month
  ,                                       !- Service Date Year
  ,                                       !- Length of Study Period in Years
  ,                                       !- Tax Rate
  ,                                       !- Depreciation Method
  Yes;                                    !- Use NIST Fuel Escalation Rates

OS:Facility,
  {3ba8e45b-b833-44eb-a723-ea6c3946dc96}; !- Handle

OS:SpaceType,
  {7a04d991-829d-4fcd-bae2-e9ddcc0b7cda}, !- Handle
  ChildCare|BlendEdu|DOE Ref Pre-1980|ASHRAE 169-2006-5A, !- Name
  {652ead7f-cf32-4962-bcf6-9976db31ac40}, !- Default Construction Set Name
  ,                                       !- Default Schedule Set Name
  {6291e3fc-56ac-4b3d-a8bf-36177976cddd}, !- Group Rendering Name
  {73326457-05a9-449e-883d-6bdfa56a8b54}, !- Design Specification Outdoor Air Object Name
  ChildCare,                              !- Standards Building Type
  BlendEdu;                               !- Standards Space Type

OS:Rendering:Color,
  {6291e3fc-56ac-4b3d-a8bf-36177976cddd}, !- Handle
  Rendering Color 1,                      !- Name
  120,                                    !- Rendering Red Value
  230,                                    !- Rendering Green Value
  199;                                    !- Rendering Blue Value

OS:SpaceType,
  {98837788-c9eb-47d2-8c7e-4e35e51e0ce5}, !- Handle
  ChildCare|Office|DOE Ref Pre-1980|ASHRAE 169-2006-5A, !- Name
  {652ead7f-cf32-4962-bcf6-9976db31ac40}, !- Default Construction Set Name
  {9e48d28e-1bb5-4d08-8de5-4c5b185bea04}, !- Default Schedule Set Name
  {e404fae1-6df8-4785-b0a0-dc3f899bdf3f}, !- Group Rendering Name
  {87fa9943-6f85-4857-b5e2-3b9aca33d332}, !- Design Specification Outdoor Air Object Name
  ChildCare,                              !- Standards Building Type
  Office;                                 !- Standards Space Type

OS:Rendering:Color,
  {e404fae1-6df8-4785-b0a0-dc3f899bdf3f}, !- Handle
  Rendering Color 2,                      !- Name
  120,                                    !- Rendering Red Value
  230,                                    !- Rendering Green Value
  199;                                    !- Rendering Blue Value

OS:SpaceType,
  {45fcc306-436a-44a9-906e-36515d390ed8}, !- Handle
  ChildCare|Restroom|DOE Ref Pre-1980|ASHRAE 169-2006-5A, !- Name
  {652ead7f-cf32-4962-bcf6-9976db31ac40}, !- Default Construction Set Name
  {efe4db89-d9c1-4087-b6e6-b8e5591c9cf0}, !- Default Schedule Set Name
  {ea2c330b-71b8-49f2-a4a3-abdfbed690b8}, !- Group Rendering Name
  {fd69dd4a-f2ea-4080-929e-38328e632c94}, !- Design Specification Outdoor Air Object Name
  ChildCare,                              !- Standards Building Type
  Restroom;                               !- Standards Space Type

OS:Rendering:Color,
  {ea2c330b-71b8-49f2-a4a3-abdfbed690b8}, !- Handle
  Rendering Color 3,                      !- Name
  169,                                    !- Rendering Red Value
  169,                                    !- Rendering Green Value
  31;                                     !- Rendering Blue Value

OS:Schedule:Ruleset,
  {0cd1f324-c84f-4ffb-9d76-749c64a91fa9}, !- Handle
  0600|1900|ChildCare|default|hoo,        !- Name
  {0ef2acf9-5c1d-4132-b810-9f98cf4613fb}, !- Schedule Type Limits Name
  {00c3d67d-9044-4d6f-bce9-5b6379352cb4}, !- Default Day Schedule Name
  {89c7a1f4-4571-46b1-a25d-71e8c908b085}, !- Summer Design Day Schedule Name
  {e2bd8726-bd6f-447b-adb4-7728d177fd27}; !- Winter Design Day Schedule Name

OS:Schedule:Day,
  {00c3d67d-9044-4d6f-bce9-5b6379352cb4}, !- Handle
  0600|1900|ChildCare|default|hoo Schedule Week Day, !- Name
  {0ef2acf9-5c1d-4132-b810-9f98cf4613fb}, !- Schedule Type Limits Name
  ,                                       !- Interpolate to Timestep
  6,                                      !- Hour 1
  0,                                      !- Minute 1
  0,                                      !- Value Until Time 1
  19,                                     !- Hour 2
  0,                                      !- Minute 2
  1,                                      !- Value Until Time 2
  24,                                     !- Hour 3
  0,                                      !- Minute 3
  0;                                      !- Value Until Time 3

OS:Schedule:Day,
  {c6830ae9-49b3-4b32-8419-120059436c23}, !- Handle
  Schedule Day 2,                         !- Name
  ,                                       !- Schedule Type Limits Name
  ,                                       !- Interpolate to Timestep
  24,                                     !- Hour 1
  0,                                      !- Minute 1
  0;                                      !- Value Until Time 1

OS:Schedule:Day,
  {e2bd8726-bd6f-447b-adb4-7728d177fd27}, !- Handle
  0600|1900|ChildCare|default|hoo Winter Design Day, !- Name
  {0ef2acf9-5c1d-4132-b810-9f98cf4613fb}, !- Schedule Type Limits Name
  ,                                       !- Interpolate to Timestep
  24,                                     !- Hour 1
  0,                                      !- Minute 1
  0;                                      !- Value Until Time 1

OS:Schedule:Day,
  {3bf7ce59-3424-4e48-840c-7c7303a3e4fd}, !- Handle
  Schedule Day 3,                         !- Name
  ,                                       !- Schedule Type Limits Name
  ,                                       !- Interpolate to Timestep
  24,                                     !- Hour 1
  0,                                      !- Minute 1
  0;                                      !- Value Until Time 1

OS:Schedule:Day,
  {89c7a1f4-4571-46b1-a25d-71e8c908b085}, !- Handle
  0600|1900|ChildCare|default|hoo Summer Design Day, !- Name
  {0ef2acf9-5c1d-4132-b810-9f98cf4613fb}, !- Schedule Type Limits Name
  ,                                       !- Interpolate to Timestep
  24,                                     !- Hour 1
  0,                                      !- Minute 1
  1;                                      !- Value Until Time 1

OS:DefaultScheduleSet,
  {0e949d43-fad5-40f3-9b86-ba8948043f50}, !- Handle
  Building Hours of Operation,            !- Name
  {0cd1f324-c84f-4ffb-9d76-749c64a91fa9}, !- Hours of Operation Schedule Name
  ,                                       !- Number of People Schedule Name
  ,                                       !- People Activity Level Schedule Name
  ,                                       !- Lighting Schedule Name
  ,                                       !- Electric Equipment Schedule Name
  ,                                       !- Gas Equipment Schedule Name
  ,                                       !- Hot Water Equipment Schedule Name
  ,                                       !- Infiltration Schedule Name
  ,                                       !- Steam Equipment Schedule Name
  ;                                       !- Other Equipment Schedule Name

OS:ScheduleTypeLimits,
  {0ef2acf9-5c1d-4132-b810-9f98cf4613fb}, !- Handle
  OnOff,                                  !- Name
  0,                                      !- Lower Limit Value {BasedOnField A4}
  1,                                      !- Upper Limit Value {BasedOnField A4}
  Discrete,                               !- Numeric Type
  Availability;                           !- Unit Type

OS:Schedule:Ruleset,
  {68d3b28d-47f0-4b48-bcaf-f206bc6fb363}, !- Handle
  0600|1900|ChildCare|default|swh,        !- Name
  {ddc745cc-e5d8-470b-a1bc-7f4f8c6e0ff6}, !- Schedule Type Limits Name
  {ebe4f574-e2e1-4284-bf30-45d58de4fa2f}, !- Default Day Schedule Name
  {3a9252ba-6473-4ebd-a2c1-7e87260e3e20}, !- Summer Design Day Schedule Name
  {9a20b91b-e97c-46bd-ae8d-be3f86171716}; !- Winter Design Day Schedule Name

OS:ScheduleTypeLimits,
  {ddc745cc-e5d8-470b-a1bc-7f4f8c6e0ff6}, !- Handle
  Water Use Schedule Type Limits,         !- Name
  0,                                      !- Lower Limit Value {BasedOnField A4}
  1,                                      !- Upper Limit Value {BasedOnField A4}
  Continuous,                             !- Numeric Type
  Dimensionless;                          !- Unit Type

OS:Schedule:Day,
  {ebe4f574-e2e1-4284-bf30-45d58de4fa2f}, !- Handle
  0600|1900|ChildCare|default|swh |default, !- Name
  {ddc745cc-e5d8-470b-a1bc-7f4f8c6e0ff6}, !- Schedule Type Limits Name
  ,                                       !- Interpolate to Timestep
  24,                                     !- Hour 1
  0,                                      !- Minute 1
  0;                                      !- Value Until Time 1

OS:Schedule:Day,
  {3a9252ba-6473-4ebd-a2c1-7e87260e3e20}, !- Handle
  0600|1900|ChildCare|default|swh Summer Design Day, !- Name
  {ddc745cc-e5d8-470b-a1bc-7f4f8c6e0ff6}, !- Schedule Type Limits Name
  ,                                       !- Interpolate to Timestep
  24,                                     !- Hour 1
  0,                                      !- Minute 1
  0;                                      !- Value Until Time 1

OS:Schedule:Day,
  {9a20b91b-e97c-46bd-ae8d-be3f86171716}, !- Handle
  0600|1900|ChildCare|default|swh Winter Design Day, !- Name
  {ddc745cc-e5d8-470b-a1bc-7f4f8c6e0ff6}, !- Schedule Type Limits Name
  ,                                       !- Interpolate to Timestep
  24,                                     !- Hour 1
  0,                                      !- Minute 1
  0;                                      !- Value Until Time 1

OS:Schedule:Rule,
  {61d8029e-daf7-48ea-a732-3f7295a5471d}, !- Handle
  0600|1900|ChildCare|default|swh |1/1-12/31|Sat/Sun Rule, !- Name
  {68d3b28d-47f0-4b48-bcaf-f206bc6fb363}, !- Schedule Ruleset Name
  0,                                      !- Rule Order
  {c3e5caa7-7b2c-4ccb-8445-eb3c30bb5e30}, !- Day Schedule Name
  Yes,                                    !- Apply Sunday
  ,                                       !- Apply Monday
  ,                                       !- Apply Tuesday
  ,                                       !- Apply Wednesday
  ,                                       !- Apply Thursday
  ,                                       !- Apply Friday
  Yes,                                    !- Apply Saturday
  ,                                       !- Apply Holiday
  DateRange,                              !- Date Specification Type
  1,                                      !- Start Month
  1,                                      !- Start Day
  12,                                     !- End Month
  31;                                     !- End Day

OS:Schedule:Day,
  {c3e5caa7-7b2c-4ccb-8445-eb3c30bb5e30}, !- Handle
  0600|1900|ChildCare|default|swh |1/1-12/31|Sat/Sun, !- Name
  {ddc745cc-e5d8-470b-a1bc-7f4f8c6e0ff6}, !- Schedule Type Limits Name
  ,                                       !- Interpolate to Timestep
  24,                                     !- Hour 1
  0,                                      !- Minute 1
  0;                                      !- Value Until Time 1

OS:Schedule:Ruleset,
  {d6c74eb4-c538-48cc-a6eb-b91add40114b}, !- Handle
  0600|1900|ChildCare|default|rh,         !- Name
  {2fc91a2d-9294-400e-b832-94d4adca0656}, !- Schedule Type Limits Name
  {035feb52-50cb-4190-838e-c3c8a5610dbc}, !- Default Day Schedule Name
  {a8720adc-22ec-44c6-ab5c-2c252ddc9b29}, !- Summer Design Day Schedule Name
  {420daa66-56d6-4482-8a99-4aa56ddbcf6b}; !- Winter Design Day Schedule Name

OS:ScheduleTypeLimits,
  {2fc91a2d-9294-400e-b832-94d4adca0656}, !- Handle
  Dimensionless Schedule Type Limits,     !- Name
  ,                                       !- Lower Limit Value {BasedOnField A4}
  ,                                       !- Upper Limit Value {BasedOnField A4}
  Continuous,                             !- Numeric Type
  Dimensionless;                          !- Unit Type

OS:Schedule:Day,
  {035feb52-50cb-4190-838e-c3c8a5610dbc}, !- Handle
  0600|1900|ChildCare|default|rh |default, !- Name
  {2fc91a2d-9294-400e-b832-94d4adca0656}, !- Schedule Type Limits Name
  ,                                       !- Interpolate to Timestep
  24,                                     !- Hour 1
  0,                                      !- Minute 1
  50;                                     !- Value Until Time 1

OS:Schedule:Day,
  {a8720adc-22ec-44c6-ab5c-2c252ddc9b29}, !- Handle
  0600|1900|ChildCare|default|rh Summer Design Day, !- Name
  {2fc91a2d-9294-400e-b832-94d4adca0656}, !- Schedule Type Limits Name
  ,                                       !- Interpolate to Timestep
  24,                                     !- Hour 1
  0,                                      !- Minute 1
  50;                                     !- Value Until Time 1

OS:Schedule:Day,
  {420daa66-56d6-4482-8a99-4aa56ddbcf6b}, !- Handle
  0600|1900|ChildCare|default|rh Winter Design Day, !- Name
  {2fc91a2d-9294-400e-b832-94d4adca0656}, !- Schedule Type Limits Name
  ,                                       !- Interpolate to Timestep
  24,                                     !- Hour 1
  0,                                      !- Minute 1
  50;                                     !- Value Until Time 1

OS:Schedule:Ruleset,
  {864409ef-9430-4d10-a73e-687a91afd699}, !- Handle
  0600|1900|ChildCare|default|activity,   !- Name
  {0745223d-e535-4b53-8567-214c49bd19da}, !- Schedule Type Limits Name
  {fc800a2e-75ca-4500-8548-60f11ae49834}, !- Default Day Schedule Name
  {6ba36403-2d33-4176-9ac9-fc4b6750e71e}, !- Summer Design Day Schedule Name
  {37bee677-611d-4d79-8099-f154ff28154d}; !- Winter Design Day Schedule Name

OS:ScheduleTypeLimits,
  {0745223d-e535-4b53-8567-214c49bd19da}, !- Handle
  People Activity Type Limits,            !- Name
  0,                                      !- Lower Limit Value {BasedOnField A4}
  ,                                       !- Upper Limit Value {BasedOnField A4}
  Continuous,                             !- Numeric Type
  ActivityLevel;                          !- Unit Type

OS:Schedule:Day,
  {fc800a2e-75ca-4500-8548-60f11ae49834}, !- Handle
  0600|1900|ChildCare|default|activity |default, !- Name
  {0745223d-e535-4b53-8567-214c49bd19da}, !- Schedule Type Limits Name
  ,                                       !- Interpolate to Timestep
  24,                                     !- Hour 1
  0,                                      !- Minute 1
  120;                                    !- Value Until Time 1

OS:Schedule:Day,
  {6ba36403-2d33-4176-9ac9-fc4b6750e71e}, !- Handle
  0600|1900|ChildCare|default|activity Summer Design Day, !- Name
  {0745223d-e535-4b53-8567-214c49bd19da}, !- Schedule Type Limits Name
  ,                                       !- Interpolate to Timestep
  24,                                     !- Hour 1
  0,                                      !- Minute 1
  120;                                    !- Value Until Time 1

OS:Schedule:Day,
  {37bee677-611d-4d79-8099-f154ff28154d}, !- Handle
  0600|1900|ChildCare|default|activity Winter Design Day, !- Name
  {0745223d-e535-4b53-8567-214c49bd19da}, !- Schedule Type Limits Name
  ,                                       !- Interpolate to Timestep
  24,                                     !- Hour 1
  0,                                      !- Minute 1
  120;                                    !- Value Until Time 1

OS:Schedule:Ruleset,
  {cb90d0cf-50d5-4c43-af05-b73d4d3e1366}, !- Handle
  0600|1900|ChildCare|default|work_eff,   !- Name
  {4c987679-dc3c-4ddc-87ca-c3607a69a4dd}, !- Schedule Type Limits Name
  {4b75c4dc-debc-42de-8730-4260469d9224}, !- Default Day Schedule Name
  {cda93038-91e9-4f0a-a2e9-d199c3a1346e}, !- Summer Design Day Schedule Name
  {fc1e0a16-f23a-4202-ab90-93939892c221}; !- Winter Design Day Schedule Name

OS:ScheduleTypeLimits,
  {4c987679-dc3c-4ddc-87ca-c3607a69a4dd}, !- Handle
  Fraction Schedule Type Limits,          !- Name
  0,                                      !- Lower Limit Value {BasedOnField A4}
  1,                                      !- Upper Limit Value {BasedOnField A4}
  Continuous,                             !- Numeric Type
  Dimensionless;                          !- Unit Type

OS:Schedule:Day,
  {4b75c4dc-debc-42de-8730-4260469d9224}, !- Handle
  0600|1900|ChildCare|default|work_eff |default, !- Name
  {4c987679-dc3c-4ddc-87ca-c3607a69a4dd}, !- Schedule Type Limits Name
  ,                                       !- Interpolate to Timestep
  24,                                     !- Hour 1
  0,                                      !- Minute 1
  0;                                      !- Value Until Time 1

OS:Schedule:Day,
  {cda93038-91e9-4f0a-a2e9-d199c3a1346e}, !- Handle
  0600|1900|ChildCare|default|work_eff Summer Design Day, !- Name
  {4c987679-dc3c-4ddc-87ca-c3607a69a4dd}, !- Schedule Type Limits Name
  ,                                       !- Interpolate to Timestep
  24,                                     !- Hour 1
  0,                                      !- Minute 1
  0;                                      !- Value Until Time 1

OS:Schedule:Day,
  {fc1e0a16-f23a-4202-ab90-93939892c221}, !- Handle
  0600|1900|ChildCare|default|work_eff Winter Design Day, !- Name
  {4c987679-dc3c-4ddc-87ca-c3607a69a4dd}, !- Schedule Type Limits Name
  ,                                       !- Interpolate to Timestep
  24,                                     !- Hour 1
  0,                                      !- Minute 1
  0;                                      !- Value Until Time 1

OS:Schedule:Ruleset,
  {1b22030e-b915-4891-a8fe-d6c215f3d6a7}, !- Handle
  0600|1900|ChildCare|default|ext_lighting, !- Name
  {d23cf88a-1e0a-428b-898f-01773347a524}, !- Schedule Type Limits Name
  {f8a9bc14-eb03-4201-a37b-7ce4f6b371f4}, !- Default Day Schedule Name
  {e3cbf62f-d536-4df7-95b9-fe1909886d7e}, !- Summer Design Day Schedule Name
  {c3d4fc16-a6b5-468f-b9fe-8d65bd45c740}; !- Winter Design Day Schedule Name

OS:ScheduleTypeLimits,
  {d23cf88a-1e0a-428b-898f-01773347a524}, !- Handle
  Lights Schedule Type Limits,            !- Name
  0,                                      !- Lower Limit Value {BasedOnField A4}
  1,                                      !- Upper Limit Value {BasedOnField A4}
  Continuous,                             !- Numeric Type
  Dimensionless;                          !- Unit Type

OS:Schedule:Day,
  {f8a9bc14-eb03-4201-a37b-7ce4f6b371f4}, !- Handle
  0600|1900|ChildCare|default|ext_lighting |default, !- Name
  {d23cf88a-1e0a-428b-898f-01773347a524}, !- Schedule Type Limits Name
  ,                                       !- Interpolate to Timestep
  24,                                     !- Hour 1
  0,                                      !- Minute 1
  1;                                      !- Value Until Time 1

OS:Schedule:Day,
  {e3cbf62f-d536-4df7-95b9-fe1909886d7e}, !- Handle
  0600|1900|ChildCare|default|ext_lighting Summer Design Day, !- Name
  {d23cf88a-1e0a-428b-898f-01773347a524}, !- Schedule Type Limits Name
  ,                                       !- Interpolate to Timestep
  24,                                     !- Hour 1
  0,                                      !- Minute 1
  1;                                      !- Value Until Time 1

OS:Schedule:Day,
  {c3d4fc16-a6b5-468f-b9fe-8d65bd45c740}, !- Handle
  0600|1900|ChildCare|default|ext_lighting Winter Design Day, !- Name
  {d23cf88a-1e0a-428b-898f-01773347a524}, !- Schedule Type Limits Name
  ,                                       !- Interpolate to Timestep
  24,                                     !- Hour 1
  0,                                      !- Minute 1
  1;                                      !- Value Until Time 1

OS:Schedule:Ruleset,
  {601716f7-3ebc-40ea-b8a6-b01568cfbce1}, !- Handle
  0600|1900|ChildCare|default|clg_setpoint, !- Name
  {3f146a73-05ba-4c86-bdbb-fe85eeecbaa6}, !- Schedule Type Limits Name
  {41b19046-7ca8-481e-8a04-38eeebc5d204}, !- Default Day Schedule Name
  {783c1656-da6e-48bc-b918-df97fbcccd18}, !- Summer Design Day Schedule Name
  {5d7b45f1-117c-41e9-b028-82931e635de4}; !- Winter Design Day Schedule Name

OS:ScheduleTypeLimits,
  {3f146a73-05ba-4c86-bdbb-fe85eeecbaa6}, !- Handle
  Thermostat Cooling Setpoint Schedule Type Limits, !- Name
  0,                                      !- Lower Limit Value {BasedOnField A4}
  100,                                    !- Upper Limit Value {BasedOnField A4}
  Continuous,                             !- Numeric Type
  Temperature;                            !- Unit Type

OS:Schedule:Day,
  {41b19046-7ca8-481e-8a04-38eeebc5d204}, !- Handle
  0600|1900|ChildCare|default|clg_setpoint |default, !- Name
  {3f146a73-05ba-4c86-bdbb-fe85eeecbaa6}, !- Schedule Type Limits Name
  ,                                       !- Interpolate to Timestep
  24,                                     !- Hour 1
  0,                                      !- Minute 1
  24.0000000000001;                       !- Value Until Time 1

OS:Schedule:Day,
  {783c1656-da6e-48bc-b918-df97fbcccd18}, !- Handle
  0600|1900|ChildCare|default|clg_setpoint Summer Design Day, !- Name
  {3f146a73-05ba-4c86-bdbb-fe85eeecbaa6}, !- Schedule Type Limits Name
  ,                                       !- Interpolate to Timestep
  24,                                     !- Hour 1
  0,                                      !- Minute 1
  24.0000000000001;                       !- Value Until Time 1

OS:Schedule:Day,
  {5d7b45f1-117c-41e9-b028-82931e635de4}, !- Handle
  0600|1900|ChildCare|default|clg_setpoint Winter Design Day, !- Name
  {3f146a73-05ba-4c86-bdbb-fe85eeecbaa6}, !- Schedule Type Limits Name
  ,                                       !- Interpolate to Timestep
  24,                                     !- Hour 1
  0,                                      !- Minute 1
  24.0000000000001;                       !- Value Until Time 1

OS:Schedule:Ruleset,
  {c5dbc0e8-cf12-44fd-b2e1-8176346b42e8}, !- Handle
  0600|1900|ChildCare|default|infiltration, !- Name
  {4c987679-dc3c-4ddc-87ca-c3607a69a4dd}, !- Schedule Type Limits Name
  {846d829a-fd44-44c0-8fa7-7be06a5264ee}, !- Default Day Schedule Name
  {599741fd-ae05-47eb-a582-6dd9b560e03a}, !- Summer Design Day Schedule Name
  {d7f3f453-dcd4-4ff7-bc8b-59d1630a7d7f}; !- Winter Design Day Schedule Name

OS:Schedule:Day,
  {846d829a-fd44-44c0-8fa7-7be06a5264ee}, !- Handle
  0600|1900|ChildCare|default|infiltration |default, !- Name
  {4c987679-dc3c-4ddc-87ca-c3607a69a4dd}, !- Schedule Type Limits Name
  ,                                       !- Interpolate to Timestep
  5,                                      !- Hour 1
  0,                                      !- Minute 1
  1,                                      !- Value Until Time 1
  22,                                     !- Hour 2
  0,                                      !- Minute 2
  0.5,                                    !- Value Until Time 2
  24,                                     !- Hour 3
  0,                                      !- Minute 3
  1;                                      !- Value Until Time 3

OS:Schedule:Day,
  {599741fd-ae05-47eb-a582-6dd9b560e03a}, !- Handle