
OS:Version,
  {16413f27-b58e-4f94-8f90-fd0cde49c243}, !- Handle
  1.5.5;                                  !- Version Identifier

OS:ClimateZones,
  {135edfab-17e7-40db-a436-27d385a8cd6d}, !- Handle
  ,                                       !- Active Institution
  ,                                       !- Active Year
  ASHRAE,                                 !- Climate Zone Institution Name 1
  ANSI/ASHRAE Standard 169,               !- Climate Zone Document Name 1
  2006,                                   !- Climate Zone Document Year 1
  ,                                       !- Climate Zone Value 1
  CEC,                                    !- Climate Zone Institution Name 2
  California Climate Zone Descriptions,   !- Climate Zone Document Name 2
  1995,                                   !- Climate Zone Document Year 2
  ;                                       !- Climate Zone Value 2

OS:YearDescription,
  {513d8dda-86cb-442a-b01c-1f7f0e0ac70e}; !- Handle

OS:RadianceParameters,
  {270a96f1-3c86-4b75-a667-cdf22790e2c8}, !- Handle
  1,                                      !- Accumulated Rays per Record
  0,                                      !- Direct Threshold
  1,                                      !- Direct Certainty
  1,                                      !- Direct Jitter
  1,                                      !- Direct Pretest
  6,                                      !- Ambient Bounces VMX
  2,                                      !- Ambient Bounces DMX
  4050,                                   !- Ambient Divisions VMX
  512,                                    !- Ambient Divisions DMX
  256,                                    !- Ambient Supersamples
  0.001,                                  !- Limit Weight VMX
  0.001,                                  !- Limit Weight DMX
  500,                                    !- Klems Sampling Density
  146;                                    !- Sky Discretization Resolution

OS:SimulationControl,
  {2c487a4c-bac9-4ac5-b669-1e49d9da7c2b}, !- Handle
  ,                                       !- Do Zone Sizing Calculation
  ,                                       !- Do System Sizing Calculation
  ,                                       !- Do Plant Sizing Calculation
  No,                                     !- Run Simulation for Sizing Periods
  ,                                       !- Run Simulation for Weather File Run Periods
  0.04,                                   !- Loads Convergence Tolerance Value
  ,                                       !- Temperature Convergence Tolerance Value {deltaC}
  ,                                       !- Solar Distribution
  ,                                       !- Maximum Number of Warmup Days
  2;                                      !- Minimum Number of Warmup Days

OS:Sizing:Parameters,
  {dde5af6f-7923-4600-a28a-7556673a0266}, !- Handle
  1.25,                                   !- Heating Sizing Factor
  1.15;                                   !- Cooling Sizing Factor

OS:ProgramControl,
  {05027a99-f2b3-4aeb-afc6-1425fbb4371d}; !- Handle

OS:Timestep,
  {4ebc9f1e-4707-402e-9844-67eb1ffbd522}, !- Handle
  2;                                      !- Number of Timesteps per Hour

OS:OutputControl:ReportingTolerances,
  {65797aa2-06a9-45fe-b69d-bc6e060399d3}; !- Handle

OS:ConvergenceLimits,
  {9fc11aba-8822-4f3d-970c-46391ba4040d}; !- Handle

OS:ShadowCalculation,
  {ca758bea-4416-4626-9bba-3d8795c79bd6}, !- Handle
  7,                                      !- Calculation Frequency
  15000;                                  !- Maximum Figures in Shadow Overlap Calculations

OS:SurfaceConvectionAlgorithm:Inside,
  {aaabfc36-718a-4ab0-b622-f186ebb45230}, !- Handle
  TARP;                                   !- Algorithm

OS:SurfaceConvectionAlgorithm:Outside,
  {9a0a9f6f-4bbd-4b12-a121-9492a1fcd7d6}, !- Handle
  DOE-2;                                  !- Algorithm

OS:HeatBalanceAlgorithm,
  {9d93e563-e1e0-46d7-9e39-d1c8aceb7212}, !- Handle
  ConductionTransferFunction,             !- Algorithm
  200;                                    !- Surface Temperature Upper Limit {F}

OS:ZoneAirHeatBalanceAlgorithm,
  {8520d93e-310f-4696-9bcd-36228bfdd743}, !- Handle
  AnalyticalSolution;                     !- Algorithm

OS:ZoneAirContaminantBalance,
  {eb5fc3ae-fb22-4160-8fcb-3e3b22b000d3}; !- Handle

OS:ZoneCapacitanceMultiplier:ResearchSpecial,
  {4020ce4f-5a7a-4849-8028-8305d7b751b1}, !- Handle
  ,                                       !- Temperature Capacity Multiplier
  ,                                       !- Humidity Capacity Multiplier
  ;                                       !- Carbon Dioxide Capacity Multiplier

OS:RunPeriod,
  {28df894d-6af9-4fb8-8f56-df1753344aa3}, !- Handle
  Run Period 1,                           !- Name
  1,                                      !- Begin Month
  1,                                      !- Begin Day of Month
  12,                                     !- End Month
  31,                                     !- End Day of Month
  ,                                       !- Use Weather File Holidays and Special Days
  ,                                       !- Use Weather File Daylight Saving Period
  ,                                       !- Apply Weekend Holiday Rule
  ,                                       !- Use Weather File Rain Indicators
  ,                                       !- Use Weather File Snow Indicators
  ;                                       !- Number of Times Runperiod to be Repeated

OS:Building,
  {bf305633-c5a1-4881-9edf-ca5e1a8e1274}, !- Handle
  Building 1,                             !- Name
  ,                                       !- Building Sector Type
  ,                                       !- North Axis {deg}
  ,                                       !- Nominal Floor to Floor Height {m}
  ,                                       !- Space Type Name
  ,                                       !- Default Construction Set Name
  {4c774943-6fa9-4ab2-a3d9-fe0a417c1a05}, !- Default Schedule Set Name
  ,                                       !- Standards Number of Stories
  ,                                       !- Standards Number of Above Ground Stories
  ChildCare;                              !- Standards Building Type

OS:LifeCycleCost:Parameters,
  {231cf8a0-f0e7-4251-a99f-11f0d464e661}, !- Handle
  FEMP,                                   !- Analysis Type
  ,                                       !- Discounting Convention
  ,                                       !- Inflation Approach
  ,                                       !- Real Discount Rate
  ,                                       !- Nominal Discount Rate
  ,                                       !- Inflation
  ,                                       !- Base Date Month
  ,                                       !- Base Date Year
  ,                                       !- Service Date Month
  ,                                       !- Service Date Year
  ,                                       !- Length of Study Period in Years
  ,                                       !- Tax Rate
  ,                                       !- Depreciation Method
  Yes;                                    !- Use NIST Fuel Escalation Rates

OS:Facility,
  {3ba8e45b-b833-44eb-a723-ea6c3946dc96}; !- Handle

OS:SpaceType,
  {d7aa4661-0b96-4c68-8452-f1ead370f184}, !- Handle
  ChildCare|BlendEdu|DOE Ref 2004|ASHRAE 169-2006-5A, !- Name
  {b16773a8-978b-4c96-afc2-4e9d422ab8b9}, !- Default Construction Set Name
  ,                                       !- Default Schedule Set Name
  {109be498-ad64-4100-9ffd-d46c46e29f5c}, !- Group Rendering Name
  {ca9feb17-7aa3-46a7-807c-dadb3386e43e}, !- Design Specification Outdoor Air Object Name
  ChildCare,                              !- Standards Building Type
  BlendEdu;                               !- Standards Space Type

OS:Rendering:Color,
  {109be498-ad64-4100-9ffd-d46c46e29f5c}, !- Handle
  Rendering Color 1,                      !- Name
  120,                                    !- Rendering Red Value
  230,                                    !- Rendering Green Value
  199;                                    !- Rendering Blue Value

OS:SpaceType,
  {d0eb0de4-7abe-4ee9-b68f-a606301af5bc}, !- Handle
  ChildCare|Office|DOE Ref 2004|ASHRAE 169-2006-5A, !- Name
  {b16773a8-978b-4c96-afc2-4e9d422ab8b9}, !- Default Construction Set Name
  {b12ee3fa-d8b6-4971-b85f-3c06e666fbd3}, !- Default Schedule Set Name
  {a74d8510-b5a4-4bfd-a733-fa13c77e1a17}, !- Group Rendering Name
  {de723f2d-4b45-4d84-9ae7-03340af4be4e}, !- Design Specification Outdoor Air Object Name
  ChildCare,                              !- Standards Building Type
  Office;                                 !- Standards Space Type

OS:Rendering:Color,
  {a74d8510-b5a4-4bfd-a733-fa13c77e1a17}, !- Handle
  Rendering Color 2,                      !- Name
  120,                                    !- Rendering Red Value
  230,                                    !- Rendering Green Value
  199;                                    !- Rendering Blue Value

OS:SpaceType,
  {da7b127c-537c-4c25-b4dd-b42ce6a3491f}, !- Handle
  ChildCare|Restroom|DOE Ref 2004|ASHRAE 169-2006-5A, !- Name
  {b16773a8-978b-4c96-afc2-4e9d422ab8b9}, !- Default Construction Set Name
  {3f247d5c-1819-438e-aee8-48b3e13e9902}, !- Default Schedule Set Name
  {79973e31-7650-4ae1-8ccc-b8966446a464}, !- Group Rendering Name
  {9febd14e-28f3-470b-a42d-8584adc5a33d}, !- Design Specification Outdoor Air Object Name
  ChildCare,                              !- Standards Building Type
  Restroom;                               !- Standards Space Type

OS:Rendering:Color,
  {79973e31-7650-4ae1-8ccc-b8966446a464}, !- Handle
  Rendering Color 3,                      !- Name
  169,                                    !- Rendering Red Value
  169,                                    !- Rendering Green Value
  31;                                     !- Rendering Blue Value

OS:Schedule:Ruleset,
  {7855d18b-fbe1-4ae4-a97f-a690c0e5af7a}, !- Handle
  0600|1900|ChildCare|default|hoo,        !- Name
  {8eee38d9-3d61-4061-92a9-24ff69da3dc1}, !- Schedule Type Limits Name
  {aa034dc5-5804-4c3e-8035-2de96877e547}, !- Default Day Schedule Name
  {b8d57613-b908-46c0-af69-a2ee2266c6f4}, !- Summer Design Day Schedule Name
  {97eb9127-46c3-41ef-b5ec-f9ad199e85a0}; !- Winter Design Day Schedule Name

OS:Schedule:Day,
  {aa034dc5-5804-4c3e-8035-2de96877e547}, !- Handle
  0600|1900|ChildCare|default|hoo Schedule Week Day, !- Name
  {8eee38d9-3d61-4061-92a9-24ff69da3dc1}, !- Schedule Type Limits Name
  ,                                       !- Interpolate to Timestep
  6,                                      !- Hour 1
  0,                                      !- Minute 1
  0,                                      !- Value Until Time 1
  19,                                     !- Hour 2
  0,                                      !- Minute 2
  1,                                      !- Value Until Time 2
  24,                                     !- Hour 3
  0,                                      !- Minute 3
  0;                                      !- Value Until Time 3

OS:Schedule:Day,
  {1f2e4099-5803-41fb-a84c-54a0d81bf19d}, !- Handle
  Schedule Day 2,                         !- Name
  ,                                       !- Schedule Type Limits Name
  ,                                       !- Interpolate to Timestep
  24,                                     !- Hour 1
  0,                                      !- Minute 1
  0;                                      !- Value Until Time 1

OS:Schedule:Day,
  {97eb9127-46c3-41ef-b5ec-f9ad199e85a0}, !- Handle
  0600|1900|ChildCare|default|hoo Winter Design Day, !- Name
  {8eee38d9-3d61-4061-92a9-24ff69da3dc1}, !- Schedule Type Limits Name
  ,                                       !- Interpolate to Timestep
  24,                                     !- Hour 1
  0,                                      !- Minute 1
  0;                                      !- Value Until Time 1

OS:Schedule:Day,
  {b2195b1e-41bd-432b-a479-3a01c60a2886}, !- Handle
  Schedule Day 3,                         !- Name
  ,                                       !- Schedule Type Limits Name
  ,                                       !- Interpolate to Timestep
  24,                                     !- Hour 1
  0,                                      !- Minute 1
  0;                                      !- Value Until Time 1

OS:Schedule:Day,
  {b8d57613-b908-46c0-af69-a2ee2266c6f4}, !- Handle
  0600|1900|ChildCare|default|hoo Summer Design Day, !- Name
  {8eee38d9-3d61-4061-92a9-24ff69da3dc1}, !- Schedule Type Limits Name
  ,                                       !- Interpolate to Timestep
  24,                                     !- Hour 1
  0,                                      !- Minute 1
  1;                                      !- Value Until Time 1

OS:DefaultScheduleSet,
  {4c774943-6fa9-4ab2-a3d9-fe0a417c1a05}, !- Handle
  Building Hours of Operation,            !- Name
  {7855d18b-fbe1-4ae4-a97f-a690c0e5af7a}, !- Hours of Operation Schedule Name
  ,                                       !- Number of People Schedule Name
  ,                                       !- People Activity Level Schedule Name
  ,                                       !- Lighting Schedule Name
  ,                                       !- Electric Equipment Schedule Name
  ,                                       !- Gas Equipment Schedule Name
  ,                                       !- Hot Water Equipment Schedule Name
  ,                                       !- Infiltration Schedule Name
  ,                                       !- Steam Equipment Schedule Name
  ;                                       !- Other Equipment Schedule Name

OS:ScheduleTypeLimits,
  {8eee38d9-3d61-4061-92a9-24ff69da3dc1}, !- Handle
  OnOff,                                  !- Name
  0,                                      !- Lower Limit Value {BasedOnField A4}
  1,                                      !- Upper Limit Value {BasedOnField A4}
  Discrete,                               !- Numeric Type
  Availability;                           !- Unit Type

OS:Schedule:Ruleset,
  {6c1bd2f0-c6de-49b9-b47f-a6df49fb47a7}, !- Handle
  0600|1900|ChildCare|default|swh,        !- Name
  {a709b887-db42-4efb-92fc-256ee219e11d}, !- Schedule Type Limits Name
  {4c280a46-d48f-400f-a59f-2dc3ceb52733}, !- Default Day Schedule Name
  {b721a64c-0624-431b-a6e9-63b9022d1f88}, !- Summer Design Day Schedule Name
  {d768fc79-9a18-4b2c-a4f0-b014c29b8823}; !- Winter Design Day Schedule Name

OS:ScheduleTypeLimits,
  {a709b887-db42-4efb-92fc-256ee219e11d}, !- Handle
  Water Use Schedule Type Limits,         !- Name
  0,                                      !- Lower Limit Value {BasedOnField A4}
  1,                                      !- Upper Limit Value {BasedOnField A4}
  Continuous,                             !- Numeric Type
  Dimensionless;                          !- Unit Type

OS:Schedule:Day,
  {4c280a46-d48f-400f-a59f-2dc3ceb52733}, !- Handle
  0600|1900|ChildCare|default|swh |default, !- Name
  {a709b887-db42-4efb-92fc-256ee219e11d}, !- Schedule Type Limits Name
  ,                                       !- Interpolate to Timestep
  24,                                     !- Hour 1
  0,                                      !- Minute 1
  0;                                      !- Value Until Time 1

OS:Schedule:Day,
  {b721a64c-0624-431b-a6e9-63b9022d1f88}, !- Handle
  0600|1900|ChildCare|default|swh Summer Design Day, !- Name
  {a709b887-db42-4efb-92fc-256ee219e11d}, !- Schedule Type Limits Name
  ,                                       !- Interpolate to Timestep
  24,                                     !- Hour 1
  0,                                      !- Minute 1
  0;                                      !- Value Until Time 1

OS:Schedule:Day,
  {d768fc79-9a18-4b2c-a4f0-b014c29b8823}, !- Handle
  0600|1900|ChildCare|default|swh Winter Design Day, !- Name
  {a709b887-db42-4efb-92fc-256ee219e11d}, !- Schedule Type Limits Name
  ,                                       !- Interpolate to Timestep
  24,                                     !- Hour 1
  0,                                      !- Minute 1
  0;                                      !- Value Until Time 1

OS:Schedule:Rule,
  {7cf05fc6-38c7-46cd-acc3-97af04cf162a}, !- Handle
  0600|1900|ChildCare|default|swh |1/1-12/31|Sat/Sun Rule, !- Name
  {6c1bd2f0-c6de-49b9-b47f-a6df49fb47a7}, !- Schedule Ruleset Name
  0,                                      !- Rule Order
  {b40d2a40-404e-454b-8f74-9d2098a6dd4b}, !- Day Schedule Name
  Yes,                                    !- Apply Sunday
  ,                                       !- Apply Monday
  ,                                       !- Apply Tuesday
  ,                                       !- Apply Wednesday
  ,                                       !- Apply Thursday
  ,                                       !- Apply Friday
  Yes,                                    !- Apply Saturday
  ,                                       !- Apply Holiday
  DateRange,                              !- Date Specification Type
  1,                                      !- Start Month
  1,                                      !- Start Day
  12,                                     !- End Month
  31;                                     !- End Day

OS:Schedule:Day,
  {b40d2a40-404e-454b-8f74-9d2098a6dd4b}, !- Handle
  0600|1900|ChildCare|default|swh |1/1-12/31|Sat/Sun, !- Name
  {a709b887-db42-4efb-92fc-256ee219e11d}, !- Schedule Type Limits Name
  ,                                       !- Interpolate to Timestep
  24,                                     !- Hour 1
  0,                                      !- Minute 1
  0;                                      !- Value Until Time 1

OS:Schedule:Ruleset,
  {dc17ac15-47e7-4383-8808-39dd47570a53}, !- Handle
  0600|1900|ChildCare|default|rh,         !- Name
  {1a79684f-e8ca-408a-b2b8-c037df26534f}, !- Schedule Type Limits Name
  {367986f8-c4fd-4d70-a4fe-6e146f5aabec}, !- Default Day Schedule Name
  {fc2ddec5-150a-4997-9e77-5e244885d637}, !- Summer Design Day Schedule Name
  {eaf69aa5-64e5-4396-b364-a437b20e11dd}; !- Winter Design Day Schedule Name

OS:ScheduleTypeLimits,
  {1a79684f-e8ca-408a-b2b8-c037df26534f}, !- Handle
  Dimensionless Schedule Type Limits,     !- Name
  ,                                       !- Lower Limit Value {BasedOnField A4}
  ,                                       !- Upper Limit Value {BasedOnField A4}
  Continuous,                             !- Numeric Type
  Dimensionless;                          !- Unit Type

OS:Schedule:Day,
  {367986f8-c4fd-4d70-a4fe-6e146f5aabec}, !- Handle
  0600|1900|ChildCare|default|rh |default, !- Name
  {1a79684f-e8ca-408a-b2b8-c037df26534f}, !- Schedule Type Limits Name
  ,                                       !- Interpolate to Timestep
  24,                                     !- Hour 1
  0,                                      !- Minute 1
  50;                                     !- Value Until Time 1

OS:Schedule:Day,
  {fc2ddec5-150a-4997-9e77-5e244885d637}, !- Handle
  0600|1900|ChildCare|default|rh Summer Design Day, !- Name
  {1a79684f-e8ca-408a-b2b8-c037df26534f}, !- Schedule Type Limits Name
  ,                                       !- Interpolate to Timestep
  24,                                     !- Hour 1
  0,                                      !- Minute 1
  50;                                     !- Value Until Time 1

OS:Schedule:Day,
  {eaf69aa5-64e5-4396-b364-a437b20e11dd}, !- Handle
  0600|1900|ChildCare|default|rh Winter Design Day, !- Name
  {1a79684f-e8ca-408a-b2b8-c037df26534f}, !- Schedule Type Limits Name
  ,                                       !- Interpolate to Timestep
  24,                                     !- Hour 1
  0,                                      !- Minute 1
  50;                                     !- Value Until Time 1

OS:Schedule:Ruleset,
  {a4c22425-6700-4504-98ce-3443adddf55c}, !- Handle
  0600|1900|ChildCare|default|activity,   !- Name
  {28ccf6dd-6dde-4ade-84cc-c6b8af5b945d}, !- Schedule Type Limits Name
  {b76224cf-2f0b-46a9-8c5a-1750a5f2da7b}, !- Default Day Schedule Name
  {3d5a212c-c0a5-47f1-8e00-a3336c0c43fe}, !- Summer Design Day Schedule Name
  {88c1df1c-5390-4d00-a654-11c8b8b9efdb}; !- Winter Design Day Schedule Name

OS:ScheduleTypeLimits,
  {28ccf6dd-6dde-4ade-84cc-c6b8af5b945d}, !- Handle
  People Activity Type Limits,            !- Name
  0,                                      !- Lower Limit Value {BasedOnField A4}
  ,                                       !- Upper Limit Value {BasedOnField A4}
  Continuous,                             !- Numeric Type
  ActivityLevel;                          !- Unit Type

OS:Schedule:Day,
  {b76224cf-2f0b-46a9-8c5a-1750a5f2da7b}, !- Handle
  0600|1900|ChildCare|default|activity |default, !- Name
  {28ccf6dd-6dde-4ade-84cc-c6b8af5b945d}, !- Schedule Type Limits Name
  ,                                       !- Interpolate to Timestep
  24,                                     !- Hour 1
  0,                                      !- Minute 1
  120;                                    !- Value Until Time 1

OS:Schedule:Day,
  {3d5a212c-c0a5-47f1-8e00-a3336c0c43fe}, !- Handle
  0600|1900|ChildCare|default|activity Summer Design Day, !- Name
  {28ccf6dd-6dde-4ade-84cc-c6b8af5b945d}, !- Schedule Type Limits Name
  ,                                       !- Interpolate to Timestep
  24,                                     !- Hour 1
  0,                                      !- Minute 1
  120;                                    !- Value Until Time 1

OS:Schedule:Day,
  {88c1df1c-5390-4d00-a654-11c8b8b9efdb}, !- Handle
  0600|1900|ChildCare|default|activity Winter Design Day, !- Name
  {28ccf6dd-6dde-4ade-84cc-c6b8af5b945d}, !- Schedule Type Limits Name
  ,                                       !- Interpolate to Timestep
  24,                                     !- Hour 1
  0,                                      !- Minute 1
  120;                                    !- Value Until Time 1

OS:Schedule:Ruleset,
  {74d16779-3596-4049-bc84-281af828ab16}, !- Handle
  0600|1900|ChildCare|default|work_eff,   !- Name
  {b7672a27-9cfa-491c-8be6-b4d658ea7617}, !- Schedule Type Limits Name
  {dd751ba4-1c95-4524-b499-8129b588bccd}, !- Default Day Schedule Name
  {2d08501b-4802-4f60-a5e5-50b84503f84f}, !- Summer Design Day Schedule Name
  {724c544d-0378-4062-8824-d33a85fa1208}; !- Winter Design Day Schedule Name

OS:ScheduleTypeLimits,
  {b7672a27-9cfa-491c-8be6-b4d658ea7617}, !- Handle
  Fraction Schedule Type Limits,          !- Name
  0,                                      !- Lower Limit Value {BasedOnField A4}
  1,                                      !- Upper Limit Value {BasedOnField A4}
  Continuous,                             !- Numeric Type
  Dimensionless;                          !- Unit Type

OS:Schedule:Day,
  {dd751ba4-1c95-4524-b499-8129b588bccd}, !- Handle
  0600|1900|ChildCare|default|work_eff |default, !- Name
  {b7672a27-9cfa-491c-8be6-b4d658ea7617}, !- Schedule Type Limits Name
  ,                                       !- Interpolate to Timestep
  24,                                     !- Hour 1
  0,                                      !- Minute 1
  0;                                      !- Value Until Time 1

OS:Schedule:Day,
  {2d08501b-4802-4f60-a5e5-50b84503f84f}, !- Handle
  0600|1900|ChildCare|default|work_eff Summer Design Day, !- Name
  {b7672a27-9cfa-491c-8be6-b4d658ea7617}, !- Schedule Type Limits Name
  ,                                       !- Interpolate to Timestep
  24,                                     !- Hour 1
  0,                                      !- Minute 1
  0;                                      !- Value Until Time 1

OS:Schedule:Day,
  {724c544d-0378-4062-8824-d33a85fa1208}, !- Handle
  0600|1900|ChildCare|default|work_eff Winter Design Day, !- Name
  {b7672a27-9cfa-491c-8be6-b4d658ea7617}, !- Schedule Type Limits Name
  ,                                       !- Interpolate to Timestep
  24,                                     !- Hour 1
  0,                                      !- Minute 1
  0;                                      !- Value Until Time 1

OS:Schedule:Ruleset,
  {31a05a37-671c-4802-b497-93353a021b78}, !- Handle
  0600|1900|ChildCare|default|ext_lighting, !- Name
  {02842d3e-9033-4d59-b4f3-e0886919dbdf}, !- Schedule Type Limits Name
  {7327e7b1-73c4-4dd3-b6ff-9e11643e0053}, !- Default Day Schedule Name
  {9f955ddc-c5b3-4030-b3f7-30c832850fcd}, !- Summer Design Day Schedule Name
  {5400022b-171f-4a76-b5df-8e58ade42117}; !- Winter Design Day Schedule Name

OS:ScheduleTypeLimits,
  {02842d3e-9033-4d59-b4f3-e0886919dbdf}, !- Handle
  Lights Schedule Type Limits,            !- Name
  0,                                      !- Lower Limit Value {BasedOnField A4}
  1,                                      !- Upper Limit Value {BasedOnField A4}
  Continuous,                             !- Numeric Type
  Dimensionless;                          !- Unit Type

OS:Schedule:Day,
  {7327e7b1-73c4-4dd3-b6ff-9e11643e0053}, !- Handle
  0600|1900|ChildCare|default|ext_lighting |default, !- Name
  {02842d3e-9033-4d59-b4f3-e0886919dbdf}, !- Schedule Type Limits Name
  ,                                       !- Interpolate to Timestep
  24,                                     !- Hour 1
  0,                                      !- Minute 1
  1;                                      !- Value Until Time 1

OS:Schedule:Day,
  {9f955ddc-c5b3-4030-b3f7-30c832850fcd}, !- Handle
  0600|1900|ChildCare|default|ext_lighting Summer Design Day, !- Name
  {02842d3e-9033-4d59-b4f3-e0886919dbdf}, !- Schedule Type Limits Name
  ,                                       !- Interpolate to Timestep
  24,                                     !- Hour 1
  0,                                      !- Minute 1
  1;                                      !- Value Until Time 1

OS:Schedule:Day,
  {5400022b-171f-4a76-b5df-8e58ade42117}, !- Handle
  0600|1900|ChildCare|default|ext_lighting Winter Design Day, !- Name
  {02842d3e-9033-4d59-b4f3-e0886919dbdf}, !- Schedule Type Limits Name
  ,                                       !- Interpolate to Timestep
  24,                                     !- Hour 1
  0,                                      !- Minute 1
  1;                                      !- Value Until Time 1

OS:Schedule:Ruleset,
  {332070fb-c732-4a10-8372-3eb38d8128be}, !- Handle
  0600|1900|ChildCare|default|clg_setpoint, !- Name
  {3d766750-356c-4416-b2fb-f0f396655ed4}, !- Schedule Type Limits Name
  {44947c27-29a0-42bf-99e4-24ef82fe6ac6}, !- Default Day Schedule Name
  {598cce15-c423-4e8f-9dfa-55746b2eefaf}, !- Summer Design Day Schedule Name
  {61a4a3e4-b054-4cf5-867c-4cf0ab5e13bf}; !- Winter Design Day Schedule Name

OS:ScheduleTypeLimits,
  {3d766750-356c-4416-b2fb-f0f396655ed4}, !- Handle
  Thermostat Cooling Setpoint Schedule Type Limits, !- Name
  0,                                      !- Lower Limit Value {BasedOnField A4}
  100,                                    !- Upper Limit Value {BasedOnField A4}
  Continuous,                             !- Numeric Type
  Temperature;                            !- Unit Type

OS:Schedule:Day,
  {44947c27-29a0-42bf-99e4-24ef82fe6ac6}, !- Handle
  0600|1900|ChildCare|default|clg_setpoint |default, !- Name
  {3d766750-356c-4416-b2fb-f0f396655ed4}, !- Schedule Type Limits Name
  ,                                       !- Interpolate to Timestep
  24,                                     !- Hour 1
  0,                                      !- Minute 1
  24.0000000000001;                       !- Value Until Time 1

OS:Schedule:Day,
  {598cce15-c423-4e8f-9dfa-55746b2eefaf}, !- Handle
  0600|1900|ChildCare|default|clg_setpoint Summer Design Day, !- Name
  {3d766750-356c-4416-b2fb-f0f396655ed4}, !- Schedule Type Limits Name
  ,                                       !- Interpolate to Timestep
  24,                                     !- Hour 1
  0,                                      !- Minute 1
  24.0000000000001;                       !- Value Until Time 1

OS:Schedule:Day,
  {61a4a3e4-b054-4cf5-867c-4cf0ab5e13bf}, !- Handle
  0600|1900|ChildCare|default|clg_setpoint Winter Design Day, !- Name
  {3d766750-356c-4416-b2fb-f0f396655ed4}, !- Schedule Type Limits Name
  ,                                       !- Interpolate to Timestep
  24,                                     !- Hour 1
  0,                                      !- Minute 1
  24.0000000000001;                       !- Value Until Time 1

OS:Schedule:Ruleset,
  {56572f31-5a37-47f7-9c8a-d24bb8531825}, !- Handle
  0600|1900|ChildCare|default|infiltration, !- Name
  {b7672a27-9cfa-491c-8be6-b4d658ea7617}, !- Schedule Type Limits Name
  {26838b31-4053-4a81-8ee1-d7bce59e8cff}, !- Default Day Schedule Name
  {54cc101a-4a6a-42a4-8be3-f5cc2b22799d}, !- Summer Design Day Schedule Name
  {b3455a5c-6375-4dcc-a607-c6335b3ee27f}; !- Winter Design Day Schedule Name

OS:Schedule:Day,
  {26838b31-4053-4a81-8ee1-d7bce59e8cff}, !- Handle
  0600|1900|ChildCare|default|infiltration |default, !- Name
  {b7672a27-9cfa-491c-8be6-b4d658ea7617}, !- Schedule Type Limits Name
  ,                                       !- Interpolate to Timestep
  5,                                      !- Hour 1
  0,                                      !- Minute 1
  1,                                      !- Value Until Time 1
  22,                                     !- Hour 2
  0,                                      !- Minute 2
  0.5,                                    !- Value Until Time 2
  24,                                     !- Hour 3
  0,                                      !- Minute 3
  1;                                      !- Value Until Time 3

OS:Schedule:Day,
  {54cc101a-4a6a-42a4-8be3-f5cc2b22799d}, !- Handle
  0600|1900|ChildCare|default|infiltration Summer Design Day, !- Name