
OS:Version,
  {07574626-2963-4a02-8f9b-b6176f6ccc97}, !- Handle
  1.6.0;                                  !- Version Identifier

OS:ClimateZones,
  {135edfab-17e7-40db-a436-27d385a8cd6d}, !- Handle
  ,                                       !- Active Institution
  ,                                       !- Active Year
  ASHRAE,                                 !- Climate Zone Institution Name 1
  ANSI/ASHRAE Standard 169,               !- Climate Zone Document Name 1
  2006,                                   !- Climate Zone Document Year 1
  ,                                       !- Climate Zone Value 1
  CEC,                                    !- Climate Zone Institution Name 2
  California Climate Zone Descriptions,   !- Climate Zone Document Name 2
  1995,                                   !- Climate Zone Document Year 2
  ;                                       !- Climate Zone Value 2

OS:YearDescription,
  {513d8dda-86cb-442a-b01c-1f7f0e0ac70e}; !- Handle

OS:RadianceParameters,
  {270a96f1-3c86-4b75-a667-cdf22790e2c8}, !- Handle
  1,                                      !- Accumulated Rays per Record
  0,                                      !- Direct Threshold
  1,                                      !- Direct Certainty
  1,                                      !- Direct Jitter
  1,                                      !- Direct Pretest
  6,                                      !- Ambient Bounces VMX
  2,                                      !- Ambient Bounces DMX
  4050,                                   !- Ambient Divisions VMX
  512,                                    !- Ambient Divisions DMX
  256,                                    !- Ambient Supersamples
  0.001,                                  !- Limit Weight VMX
  0.001,                                  !- Limit Weight DMX
  500,                                    !- Klems Sampling Density
  146;                                    !- Sky Discretization Resolution

OS:SimulationControl,
  {2c487a4c-bac9-4ac5-b669-1e49d9da7c2b}, !- Handle
  ,                                       !- Do Zone Sizing Calculation
  ,                                       !- Do System Sizing Calculation
  ,                                       !- Do Plant Sizing Calculation
  No,                                     !- Run Simulation for Sizing Periods
  ,                                       !- Run Simulation for Weather File Run Periods
  0.04,                                   !- Loads Convergence Tolerance Value
  ,                                       !- Temperature Convergence Tolerance Value {deltaC}
  ,                                       !- Solar Distribution
  ,                                       !- Maximum Number of Warmup Days
  2;                                      !- Minimum Number of Warmup Days

OS:Sizing:Parameters,
  {dde5af6f-7923-4600-a28a-7556673a0266}, !- Handle
  1.25,                                   !- Heating Sizing Factor
  1.15;                                   !- Cooling Sizing Factor

OS:ProgramControl,
  {05027a99-f2b3-4aeb-afc6-1425fbb4371d}; !- Handle

OS:Timestep,
  {4ebc9f1e-4707-402e-9844-67eb1ffbd522}, !- Handle
  2;                                      !- Number of Timesteps per Hour

OS:OutputControl:ReportingTolerances,
  {65797aa2-06a9-45fe-b69d-bc6e060399d3}; !- Handle

OS:ConvergenceLimits,
  {9fc11aba-8822-4f3d-970c-46391ba4040d}; !- Handle

OS:ShadowCalculation,
  {ca758bea-4416-4626-9bba-3d8795c79bd6}, !- Handle
  7,                                      !- Calculation Frequency
  15000;                                  !- Maximum Figures in Shadow Overlap Calculations

OS:SurfaceConvectionAlgorithm:Inside,
  {aaabfc36-718a-4ab0-b622-f186ebb45230}, !- Handle
  TARP;                                   !- Algorithm

OS:SurfaceConvectionAlgorithm:Outside,
  {9a0a9f6f-4bbd-4b12-a121-9492a1fcd7d6}, !- Handle
  DOE-2;                                  !- Algorithm

OS:HeatBalanceAlgorithm,
  {9d93e563-e1e0-46d7-9e39-d1c8aceb7212}, !- Handle
  ConductionTransferFunction,             !- Algorithm
  200;                                    !- Surface Temperature Upper Limit {F}

OS:ZoneAirHeatBalanceAlgorithm,
  {8520d93e-310f-4696-9bcd-36228bfdd743}, !- Handle
  AnalyticalSolution;                     !- Algorithm

OS:ZoneAirContaminantBalance,
  {eb5fc3ae-fb22-4160-8fcb-3e3b22b000d3}; !- Handle

OS:ZoneCapacitanceMultiplier:ResearchSpecial,
  {4020ce4f-5a7a-4849-8028-8305d7b751b1}, !- Handle
  ,                                       !- Temperature Capacity Multiplier
  ,                                       !- Humidity Capacity Multiplier
  ;                                       !- Carbon Dioxide Capacity Multiplier

OS:RunPeriod,
  {28df894d-6af9-4fb8-8f56-df1753344aa3}, !- Handle
  Run Period 1,                           !- Name
  1,                                      !- Begin Month
  1,                                      !- Begin Day of Month
  12,                                     !- End Month
  31,                                     !- End Day of Month
  ,                                       !- Use Weather File Holidays and Special Days
  ,                                       !- Use Weather File Daylight Saving Period
  ,                                       !- Apply Weekend Holiday Rule
  ,                                       !- Use Weather File Rain Indicators
  ,                                       !- Use Weather File Snow Indicators
  ;                                       !- Number of Times Runperiod to be Repeated

OS:Building,
  {bf305633-c5a1-4881-9edf-ca5e1a8e1274}, !- Handle
  Building 1,                             !- Name
  ,                                       !- Building Sector Type
  ,                                       !- North Axis {deg}
  ,                                       !- Nominal Floor to Floor Height {m}
  ,                                       !- Space Type Name
  ,                                       !- Default Construction Set Name
  {8d46e0f9-927b-4cf6-8a69-e65b0d5045c4}, !- Default Schedule Set Name
  ,                                       !- Standards Number of Stories
  ,                                       !- Standards Number of Above Ground Stories
  ChildCare;                              !- Standards Building Type

OS:LifeCycleCost:Parameters,
  {231cf8a0-f0e7-4251-a99f-11f0d464e661}, !- Handle
  FEMP,                                   !- Analysis Type
  ,                                       !- Discounting Convention
  ,                                       !- Inflation Approach
  ,                                       !- Real Discount Rate
  ,                                       !- Nominal Discount Rate
  ,                                       !- Inflation
  ,                                       !- Base Date Month
  ,                                       !- Base Date Year
  ,                                       !- Service Date Month
  ,                                       !- Service Date Year
  ,                                       !- Length of Study Period in Years
  ,                                       !- Tax Rate
  ,                                       !- Depreciation Method
  Yes;                                    !- Use NIST Fuel Escalation Rates

OS:Facility,
  {3ba8e45b-b833-44eb-a723-ea6c3946dc96}; !- Handle

OS:SpaceType,
  {dedab9af-ac14-4b5a-aa43-020639be20d0}, !- Handle
  ChildCare|BlendEdu|DOE Ref 2004|ASHRAE 169-2006-5A, !- Name
  {665d464a-554c-4c66-9ae0-f0a7e511f3e5}, !- Default Construction Set Name
  ,                                       !- Default Schedule Set Name
  {b5e6f9d1-b7a3-40ce-a65e-68182eea25d4}, !- Group Rendering Name
  {0cbf0492-9ff1-420a-9326-1ff123899d06}, !- Design Specification Outdoor Air Object Name
  ChildCare,                              !- Standards Building Type
  BlendEdu;                               !- Standards Space Type

OS:Rendering:Color,
  {b5e6f9d1-b7a3-40ce-a65e-68182eea25d4}, !- Handle
  Rendering Color 1,                      !- Name
  120,                                    !- Rendering Red Value
  230,                                    !- Rendering Green Value
  199;                                    !- Rendering Blue Value

OS:SpaceType,
  {061f6c6d-6720-4ae8-9087-44867df2bb2a}, !- Handle
  ChildCare|Office|DOE Ref 2004|ASHRAE 169-2006-5A, !- Name
  {665d464a-554c-4c66-9ae0-f0a7e511f3e5}, !- Default Construction Set Name
  {ad555408-79d6-4c7c-8203-b57047406a3f}, !- Default Schedule Set Name
  {d7a36400-0c5f-4d2a-afb0-ef9c3cd8f643}, !- Group Rendering Name
  {3ef0656f-5153-456b-b783-18fc8c349d40}, !- Design Specification Outdoor Air Object Name
  ChildCare,                              !- Standards Building Type
  Office;                                 !- Standards Space Type

OS:Rendering:Color,
  {d7a36400-0c5f-4d2a-afb0-ef9c3cd8f643}, !- Handle
  Rendering Color 2,                      !- Name
  120,                                    !- Rendering Red Value
  230,                                    !- Rendering Green Value
  199;                                    !- Rendering Blue Value

OS:SpaceType,
  {32657878-d6a3-4f2e-a8c7-04826cd31455}, !- Handle
  ChildCare|Restroom|DOE Ref 2004|ASHRAE 169-2006-5A, !- Name
  {665d464a-554c-4c66-9ae0-f0a7e511f3e5}, !- Default Construction Set Name
  {1e18ed1b-8df9-4cb9-87be-1457eec6f7b5}, !- Default Schedule Set Name
  {872cf582-09f6-45a9-88cd-f4c8bb208c3a}, !- Group Rendering Name
  {7e63e6b8-34c6-4650-888a-b7bc3bbd5d00}, !- Design Specification Outdoor Air Object Name
  ChildCare,                              !- Standards Building Type
  Restroom;                               !- Standards Space Type

OS:Rendering:Color,
  {872cf582-09f6-45a9-88cd-f4c8bb208c3a}, !- Handle
  Rendering Color 3,                      !- Name
  169,                                    !- Rendering Red Value
  169,                                    !- Rendering Green Value
  31;                                     !- Rendering Blue Value

OS:Schedule:Ruleset,
  {a73f0659-ad5b-49db-a9e5-b7f231a89816}, !- Handle
  0600|1900|ChildCare|default|hoo,        !- Name
  {7bcc3bde-bc16-4583-9d25-ad1ac1db5117}, !- Schedule Type Limits Name
  {65aeb9d0-5158-4d45-a01f-117db0f67c8b}, !- Default Day Schedule Name
  {dac00ee4-9b80-4f55-a78d-8066279a98ff}, !- Summer Design Day Schedule Name
  {4ba73f40-c988-428d-b67d-a8c48d36ddb2}; !- Winter Design Day Schedule Name

OS:Schedule:Day,
  {65aeb9d0-5158-4d45-a01f-117db0f67c8b}, !- Handle
  0600|1900|ChildCare|default|hoo Schedule Week Day, !- Name
  {7bcc3bde-bc16-4583-9d25-ad1ac1db5117}, !- Schedule Type Limits Name
  ,                                       !- Interpolate to Timestep
  6,                                      !- Hour 1
  0,                                      !- Minute 1
  0,                                      !- Value Until Time 1
  19,                                     !- Hour 2
  0,                                      !- Minute 2
  1,                                      !- Value Until Time 2
  24,                                     !- Hour 3
  0,                                      !- Minute 3
  0;                                      !- Value Until Time 3

OS:Schedule:Day,
  {eed085c6-66bd-4f63-9b7b-698297ad6a60}, !- Handle
  Schedule Day 2,                         !- Name
  ,                                       !- Schedule Type Limits Name
  ,                                       !- Interpolate to Timestep
  24,                                     !- Hour 1
  0,                                      !- Minute 1
  0;                                      !- Value Until Time 1

OS:Schedule:Day,
  {4ba73f40-c988-428d-b67d-a8c48d36ddb2}, !- Handle
  0600|1900|ChildCare|default|hoo Winter Design Day, !- Name
  {7bcc3bde-bc16-4583-9d25-ad1ac1db5117}, !- Schedule Type Limits Name
  ,                                       !- Interpolate to Timestep
  24,                                     !- Hour 1
  0,                                      !- Minute 1
  0;                                      !- Value Until Time 1

OS:Schedule:Day,
  {2a98be30-2aac-4be7-93f3-61188cce3923}, !- Handle
  Schedule Day 3,                         !- Name
  ,                                       !- Schedule Type Limits Name
  ,                                       !- Interpolate to Timestep
  24,                                     !- Hour 1
  0,                                      !- Minute 1
  0;                                      !- Value Until Time 1

OS:Schedule:Day,
  {dac00ee4-9b80-4f55-a78d-8066279a98ff}, !- Handle
  0600|1900|ChildCare|default|hoo Summer Design Day, !- Name
  {7bcc3bde-bc16-4583-9d25-ad1ac1db5117}, !- Schedule Type Limits Name
  ,                                       !- Interpolate to Timestep
  24,                                     !- Hour 1
  0,                                      !- Minute 1
  1;                                      !- Value Until Time 1

OS:DefaultScheduleSet,
  {8d46e0f9-927b-4cf6-8a69-e65b0d5045c4}, !- Handle
  Building Hours of Operation,            !- Name
  {a73f0659-ad5b-49db-a9e5-b7f231a89816}, !- Hours of Operation Schedule Name
  ,                                       !- Number of People Schedule Name
  ,                                       !- People Activity Level Schedule Name
  ,                                       !- Lighting Schedule Name
  ,                                       !- Electric Equipment Schedule Name
  ,                                       !- Gas Equipment Schedule Name
  ,                                       !- Hot Water Equipment Schedule Name
  ,                                       !- Infiltration Schedule Name
  ,                                       !- Steam Equipment Schedule Name
  ;                                       !- Other Equipment Schedule Name

OS:ScheduleTypeLimits,
  {7bcc3bde-bc16-4583-9d25-ad1ac1db5117}, !- Handle
  OnOff,                                  !- Name
  0,                                      !- Lower Limit Value {BasedOnField A4}
  1,                                      !- Upper Limit Value {BasedOnField A4}
  Discrete,                               !- Numeric Type
  Availability;                           !- Unit Type

OS:Schedule:Ruleset,
  {a9c608ad-ff1a-4a98-b8dd-f4fdab1d1fbd}, !- Handle
  0600|1900|ChildCare|default|activity,   !- Name
  {9da65628-a55f-4717-b29d-e8289553ff92}, !- Schedule Type Limits Name
  {6f4cce33-41af-4f83-8e32-da19b3ceccd4}, !- Default Day Schedule Name
  {89c4f742-4884-421e-827d-44e62b535ab4}, !- Summer Design Day Schedule Name
  {6841a805-8718-4743-b0c0-c88503c8d2c9}; !- Winter Design Day Schedule Name

OS:ScheduleTypeLimits,
  {9da65628-a55f-4717-b29d-e8289553ff92}, !- Handle
  People Activity Type Limits,            !- Name
  0,                                      !- Lower Limit Value {BasedOnField A4}
  ,                                       !- Upper Limit Value {BasedOnField A4}
  Continuous,                             !- Numeric Type
  ActivityLevel;                          !- Unit Type

OS:Schedule:Day,
  {6f4cce33-41af-4f83-8e32-da19b3ceccd4}, !- Handle
  0600|1900|ChildCare|default|activity |default, !- Name
  {9da65628-a55f-4717-b29d-e8289553ff92}, !- Schedule Type Limits Name
  ,                                       !- Interpolate to Timestep
  24,                                     !- Hour 1
  0,                                      !- Minute 1
  120;                                    !- Value Until Time 1

OS:Schedule:Day,
  {89c4f742-4884-421e-827d-44e62b535ab4}, !- Handle
  0600|1900|ChildCare|default|activity Summer Design Day, !- Name
  {9da65628-a55f-4717-b29d-e8289553ff92}, !- Schedule Type Limits Name
  ,                                       !- Interpolate to Timestep
  24,                                     !- Hour 1
  0,                                      !- Minute 1
  120;                                    !- Value Until Time 1

OS:Schedule:Day,
  {6841a805-8718-4743-b0c0-c88503c8d2c9}, !- Handle
  0600|1900|ChildCare|default|activity Winter Design Day, !- Name
  {9da65628-a55f-4717-b29d-e8289553ff92}, !- Schedule Type Limits Name
  ,                                       !- Interpolate to Timestep
  24,                                     !- Hour 1
  0,                                      !- Minute 1
  120;                                    !- Value Until Time 1

OS:Schedule:Ruleset,
  {7ed4d7e8-e4d0-4099-8038-c5721abd5017}, !- Handle
  0600|1900|ChildCare|default|infiltration, !- Name
  {54a7291e-763c-42f2-9f17-7572c6f2d332}, !- Schedule Type Limits Name
  {c31ff292-2c5d-4267-8406-f6d17c5e3c86}, !- Default Day Schedule Name
  {7fe0061b-090c-4e04-b3d5-a28b104b5554}, !- Summer Design Day Schedule Name
  {596dba51-4c00-45ee-945f-4af0eb4a4131}; !- Winter Design Day Schedule Name

OS:ScheduleTypeLimits,
  {54a7291e-763c-42f2-9f17-7572c6f2d332}, !- Handle
  Fraction Schedule Type Limits,          !- Name
  0,                                      !- Lower Limit Value {BasedOnField A4}
  1,                                      !- Upper Limit Value {BasedOnField A4}
  Continuous,                             !- Numeric Type
  Dimensionless;                          !- Unit Type

OS:Schedule:Day,
  {c31ff292-2c5d-4267-8406-f6d17c5e3c86}, !- Handle
  0600|1900|ChildCare|default|infiltration |default, !- Name
  {54a7291e-763c-42f2-9f17-7572c6f2d332}, !- Schedule Type Limits Name
  ,                                       !- Interpolate to Timestep
  5,                                      !- Hour 1
  0,                                      !- Minute 1
  1,                                      !- Value Until Time 1
  22,                                     !- Hour 2
  0,                                      !- Minute 2
  0.5,                                    !- Value Until Time 2
  24,                                     !- Hour 3
  0,                                      !- Minute 3
  1;                                      !- Value Until Time 3

OS:Schedule:Day,
  {7fe0061b-090c-4e04-b3d5-a28b104b5554}, !- Handle
  0600|1900|ChildCare|default|infiltration Summer Design Day, !- Name
  {54a7291e-763c-42f2-9f17-7572c6f2d332}, !- Schedule Type Limits Name
  ,                                       !- Interpolate to Timestep
  5,                                      !- Hour 1
  0,                                      !- Minute 1
  1,                                      !- Value Until Time 1
  22,                                     !- Hour 2
  0,                                      !- Minute 2
  0.5,                                    !- Value Until Time 2
  24,                                     !- Hour 3
  0,                                      !- Minute 3
  1;                                      !- Value Until Time 3

OS:Schedule:Day,
  {596dba51-4c00-45ee-945f-4af0eb4a4131}, !- Handle
  0600|1900|ChildCare|default|infiltration Winter Design Day, !- Name
  {54a7291e-763c-42f2-9f17-7572c6f2d332}, !- Schedule Type Limits Name
  ,                                       !- Interpolate to Timestep
  5,                                      !- Hour 1
  0,                                      !- Minute 1
  1,                                      !- Value Until Time 1
  22,                                     !- Hour 2
  0,                                      !- Minute 2
  0.5,                                    !- Value Until Time 2
  24,                                     !- Hour 3
  0,                                      !- Minute 3
  1;                                      !- Value Until Time 3

OS:Schedule:Ruleset,
  {9b44620b-d924-43cd-a2ca-579da7d44ee9}, !- Handle
  0600|1900|ChildCare|default|rh,         !- Name
  {0ac45e29-04dd-4676-984b-847a3f046bd3}, !- Schedule Type Limits Name
  {d50be731-6c33-4dd1-a3a4-8afb962c984e}, !- Default Day Schedule Name
  {957594aa-7c28-4f1f-8d17-f0e87455ae0e}, !- Summer Design Day Schedule Name
  {6fa5b132-e82b-49de-a01c-601fc6b98573}; !- Winter Design Day Schedule Name

OS:ScheduleTypeLimits,
  {0ac45e29-04dd-4676-984b-847a3f046bd3}, !- Handle
  Dimensionless Schedule Type Limits,     !- Name
  ,                                       !- Lower Limit Value {BasedOnField A4}
  ,                                       !- Upper Limit Value {BasedOnField A4}
  Continuous,                             !- Numeric Type
  Dimensionless;                          !- Unit Type

OS:Schedule:Day,
  {d50be731-6c33-4dd1-a3a4-8afb962c984e}, !- Handle
  0600|1900|ChildCare|default|rh |default, !- Name
  {0ac45e29-04dd-4676-984b-847a3f046bd3}, !- Schedule Type Limits Name
  ,                                       !- Interpolate to Timestep
  24,                                     !- Hour 1
  0,                                      !- Minute 1
  50;                                     !- Value Until Time 1

OS:Schedule:Day,
  {957594aa-7c28-4f1f-8d17-f0e87455ae0e}, !- Handle
  0600|1900|ChildCare|default|rh Summer Design Day, !- Name
  {0ac45e29-04dd-4676-984b-847a3f046bd3}, !- Schedule Type Limits Name
  ,                                       !- Interpolate to Timestep
  24,                                     !- Hour 1
  0,                                      !- Minute 1
  50;                                     !- Value Until Time 1

OS:Schedule:Day,
  {6fa5b132-e82b-49de-a01c-601fc6b98573}, !- Handle
  0600|1900|ChildCare|default|rh Winter Design Day, !- Name
  {0ac45e29-04dd-4676-984b-847a3f046bd3}, !- Schedule Type Limits Name
  ,                                       !- Interpolate to Timestep
  24,                                     !- Hour 1
  0,                                      !- Minute 1
  50;                                     !- Value Until Time 1

OS:Schedule:Ruleset,
  {ff814b61-7a49-429a-a7e1-b2a047cafe7d}, !- Handle
  0600|1900|ChildCare|default|air_velocity, !- Name
  {0ac45e29-04dd-4676-984b-847a3f046bd3}, !- Schedule Type Limits Name
  {2cfd61db-5039-4ef4-b8ca-1370b4b1659f}, !- Default Day Schedule Name
  {a6fafb3f-7002-4b35-9f4e-c14e91bc90c2}, !- Summer Design Day Schedule Name
  {bc017a35-99ec-4f65-bd0c-4f44984564d4}; !- Winter Design Day Schedule Name

OS:Schedule:Day,
  {2cfd61db-5039-4ef4-b8ca-1370b4b1659f}, !- Handle
  0600|1900|ChildCare|default|air_velocity |default, !- Name
  {0ac45e29-04dd-4676-984b-847a3f046bd3}, !- Schedule Type Limits Name
  ,                                       !- Interpolate to Timestep
  24,                                     !- Hour 1
  0,                                      !- Minute 1
  0.200152;                               !- Value Until Time 1

OS:Schedule:Day,
  {a6fafb3f-7002-4b35-9f4e-c14e91bc90c2}, !- Handle
  0600|1900|ChildCare|default|air_velocity Summer Design Day, !- Name
  {0ac45e29-04dd-4676-984b-847a3f046bd3}, !- Schedule Type Limits Name
  ,                                       !- Interpolate to Timestep
  24,                                     !- Hour 1
  0,                                      !- Minute 1
  0.200152;                               !- Value Until Time 1

OS:Schedule:Day,
  {bc017a35-99ec-4f65-bd0c-4f44984564d4}, !- Handle
  0600|1900|ChildCare|default|air_velocity Winter Design Day, !- Name
  {0ac45e29-04dd-4676-984b-847a3f046bd3}, !- Schedule Type Limits Name
  ,                                       !- Interpolate to Timestep
  24,                                     !- Hour 1
  0,                                      !- Minute 1
  0.200152;                               !- Value Until Time 1

OS:Schedule:Ruleset,
  {339333ee-d3a6-4022-95c2-05738e87090f}, !- Handle
  0600|1900|ChildCare|default|swh_target_temp, !- Name
  {fcce949b-2fb5-4a1c-871a-afcf57d585c2}, !- Schedule Type Limits Name
  {7bd1ff97-6f6f-4837-9f5a-eaf8b71e2def}, !- Default Day Schedule Name
  {b6e485a4-006a-4977-9efc-1c5fe72a1d5d}, !- Summer Design Day Schedule Name
  {2ed426f5-954b-407b-8235-b1632130cac5}; !- Winter Design Day Schedule Name

OS:ScheduleTypeLimits,
  {fcce949b-2fb5-4a1c-871a-afcf57d585c2}, !- Handle
  Temperature Schedule Type Limits,       !- Name
  ,                                       !- Lower Limit Value {BasedOnField A4}
  ,                                       !- Upper Limit Value {BasedOnField A4}
  Continuous,                             !- Numeric Type
  Temperature;                            !- Unit Type

OS:Schedule:Day,
  {7bd1ff97-6f6f-4837-9f5a-eaf8b71e2def}, !- Handle
  0600|1900|ChildCare|default|swh_target_temp |default, !- Name
  {fcce949b-2fb5-4a1c-871a-afcf57d585c2}, !- Schedule Type Limits Name
  ,                                       !- Interpolate to Timestep
  24,                                     !- Hour 1
  0,                                      !- Minute 1
  60.0000000000001;                       !- Value Until Time 1

OS:Schedule:Day,
  {b6e485a4-006a-4977-9efc-1c5fe72a1d5d}, !- Handle
  0600|1900|ChildCare|default|swh_target_temp Summer Design Day, !- Name
  {fcce949b-2fb5-4a1c-871a-afcf57d585c2}, !- Schedule Type Limits Name
  ,                                       !- Interpolate to Timestep
  24,                                     !- Hour 1
  0,                                      !- Minute 1
  60.0000000000001;                       !- Value Until Time 1

OS:Schedule:Day,
  {2ed426f5-954b-407b-8235-b1632130cac5}, !- Handle
  0600|1900|ChildCare|default|swh_target_temp Winter Design Day, !- Name
  {fcce949b-2fb5-4a1c-871a-afcf57d585c2}, !- Schedule Type Limits Name
  ,                                       !- Interpolate to Timestep
  24,                                     !- Hour 1
  0,                                      !- Minute 1
  60.0000000000001;                       !- Value Until Time 1

OS:Schedule:Ruleset,
  {4d608e0d-5eb1-4ed2-b6e3-0c78cad245bd}, !- Handle
  0600|1900|ChildCare|default|htg_setpoint, !- Name
  {ffa47430-e546-460b-b525-507df7194edc}, !- Schedule Type Limits Name
  {0dc3b8a6-c5ef-4dd7-9bca-200662084ebc}, !- Default Day Schedule Name
  {bb5274be-b213-46df-8fe3-18086e1be1ba}, !- Summer Design Day Schedule Name
  {1aee445e-e1f7-44b2-a88a-616d4fe48a77}; !- Winter Design Day Schedule Name

OS:ScheduleTypeLimits,
  {ffa47430-e546-460b-b525-507df7194edc}, !- Handle
  Thermostat Heating Setpoint Schedule Type Limits, !- Name
  0,                                      !- Lower Limit Value {BasedOnField A4}
  100,                                    !- Upper Limit Value {BasedOnField A4}
  Continuous,                             !- Numeric Type
  Temperature;                            !- Unit Type

OS:Schedule:Day,
  {0dc3b8a6-c5ef-4dd7-9bca-200662084ebc}, !- Handle
  0600|1900|ChildCare|default|htg_setpoint |default, !- Name
  {ffa47430-e546-460b-b525-507df7194edc}, !- Schedule Type Limits Name
  ,                                       !- Interpolate to Timestep
  24,                                     !- Hour 1
  0,                                      !- Minute 1
  21.0000000000001;                       !- Value Until Time 1

OS:Schedule:Day,
  {bb5274be-b213-46df-8fe3-18086e1be1ba}, !- Handle
  0600|1900|ChildCare|default|htg_setpoint Summer Design Day, !- Name
  {ffa47430-e546-460b-b525-507df7194edc}, !- Schedule Type Limits Name
  ,                                       !- Interpolate to Timestep
  24,                                     !- Hour 1
  0,                                      !- Minute 1
  21.0000000000001;                       !- Value Until Time 1

OS:Schedule:Day,
  {1aee445e-e1f7-44b2-a88a-616d4fe48a77}, !- Handle
  0600|1900|ChildCare|default|htg_setpoint Winter Design Day, !- Name
  {ffa47430-e546-460b-b525-507df7194edc}, !- Schedule Type Limits Name
  ,                                       !- Interpolate to Timestep
  24,                                     !- Hour 1
  0,                                      !- Minute 1
  21.0000000000001;                       !- Value Until Time 1

OS:Schedule:Ruleset,
  {b4c76508-1778-49b3-8971-d06455616705}, !- Handle
  0600|1900|ChildCare|default|occ,        !- Name
  {9b52d873-b1a6-48f8-9ae0-033ae25c346a}, !- Schedule Type Limits Name
  {cad47ae2-f65e-4254-a7c5-1d0f5263f298}, !- Default Day Schedule Name
  {75eaa573-c3f7-4d14-a7a5-5f2fb6378719}, !- Summer Design Day Schedule Name
  {82a1dd6a-5012-4416-b18d-54d122f34d59}; !- Winter Design Day Schedule Name

OS:ScheduleTypeLimits,
  {9b52d873-b1a6-48f8-9ae0-033ae25c346a}, !- Handle
  Occupancy Schedule Type Limits,         !- Name
  0,                                      !- Lower Limit Value {BasedOnField A4}
  1,                                      !- Upper Limit Value {BasedOnField A4}
  Continuous,                             !- Numeric Type
  Dimensionless;                          !- Unit Type

OS:Schedule:Day,
  {cad47ae2-f65e-4254-a7c5-1d0f5263f298}, !- Handle
  0600|1900|ChildCare|default|occ |default, !- Name
  {9b52d873-b1a6-48f8-9ae0-033ae25c346a}, !- Schedule Type Limits Name
  ,                                       !- Interpolate to Timestep
  6,                                      !- Hour 1
  0,                                      !- Minute 1
  0,                                      !- Value Until Time 1
  19,                                     !- Hour 2
  0,                                      !- Minute 2
  0.75,                                   !- Value Until Time 2
  22,                                     !- Hour 3
  0,                                      !- Minute 3
  0.15,                                   !- Value Until Time 3
  24,                                     !- Hour 4
  0,                                      !- Minute 4
  0;                                      !- Value Until Time 4

OS:Schedule:Day,
  {75eaa573-c3f7-4d14-a7a5-5f2fb6378719}, !- Handle
  0600|1900|ChildCare|default|occ Summer Design Day, !- Name
  {9b52d873-b1a6-48f8-9ae0-033ae25c346a}, !- Schedule Type Limits Name
  ,                                       !- Interpolate to Timestep
  6,                                      !- Hour 1
  0,                                      !- Minute 1