
OS:Version,
  {85c5d088-596b-4f2a-b66e-37c1d2c91a36}, !- Handle
  1.5.5;                                  !- Version Identifier

OS:ClimateZones,
  {135edfab-17e7-40db-a436-27d385a8cd6d}, !- Handle
  ,                                       !- Active Institution
  ,                                       !- Active Year
  ASHRAE,                                 !- Climate Zone Institution Name 1
  ANSI/ASHRAE Standard 169,               !- Climate Zone Document Name 1
  2006,                                   !- Climate Zone Document Year 1
  ,                                       !- Climate Zone Value 1
  CEC,                                    !- Climate Zone Institution Name 2
  California Climate Zone Descriptions,   !- Climate Zone Document Name 2
  1995,                                   !- Climate Zone Document Year 2
  ;                                       !- Climate Zone Value 2

OS:YearDescription,
  {513d8dda-86cb-442a-b01c-1f7f0e0ac70e}; !- Handle

OS:RadianceParameters,
  {270a96f1-3c86-4b75-a667-cdf22790e2c8}, !- Handle
  1,                                      !- Accumulated Rays per Record
  0,                                      !- Direct Threshold
  1,                                      !- Direct Certainty
  1,                                      !- Direct Jitter
  1,                                      !- Direct Pretest
  6,                                      !- Ambient Bounces VMX
  2,                                      !- Ambient Bounces DMX
  4050,                                   !- Ambient Divisions VMX
  512,                                    !- Ambient Divisions DMX
  256,                                    !- Ambient Supersamples
  0.001,                                  !- Limit Weight VMX
  0.001,                                  !- Limit Weight DMX
  500,                                    !- Klems Sampling Density
  146;                                    !- Sky Discretization Resolution

OS:SimulationControl,
  {2c487a4c-bac9-4ac5-b669-1e49d9da7c2b}, !- Handle
  ,                                       !- Do Zone Sizing Calculation
  ,                                       !- Do System Sizing Calculation
  ,                                       !- Do Plant Sizing Calculation
  No,                                     !- Run Simulation for Sizing Periods
  ,                                       !- Run Simulation for Weather File Run Periods
  0.04,                                   !- Loads Convergence Tolerance Value
  ,                                       !- Temperature Convergence Tolerance Value {deltaC}
  ,                                       !- Solar Distribution
  ,                                       !- Maximum Number of Warmup Days
  2;                                      !- Minimum Number of Warmup Days

OS:Sizing:Parameters,
  {dde5af6f-7923-4600-a28a-7556673a0266}, !- Handle
  1.25,                                   !- Heating Sizing Factor
  1.15;                                   !- Cooling Sizing Factor

OS:ProgramControl,
  {05027a99-f2b3-4aeb-afc6-1425fbb4371d}; !- Handle

OS:Timestep,
  {4ebc9f1e-4707-402e-9844-67eb1ffbd522}, !- Handle
  2;                                      !- Number of Timesteps per Hour

OS:OutputControl:ReportingTolerances,
  {65797aa2-06a9-45fe-b69d-bc6e060399d3}; !- Handle

OS:ConvergenceLimits,
  {9fc11aba-8822-4f3d-970c-46391ba4040d}; !- Handle

OS:ShadowCalculation,
  {ca758bea-4416-4626-9bba-3d8795c79bd6}, !- Handle
  7,                                      !- Calculation Frequency
  15000;                                  !- Maximum Figures in Shadow Overlap Calculations

OS:SurfaceConvectionAlgorithm:Inside,
  {aaabfc36-718a-4ab0-b622-f186ebb45230}, !- Handle
  TARP;                                   !- Algorithm

OS:SurfaceConvectionAlgorithm:Outside,
  {9a0a9f6f-4bbd-4b12-a121-9492a1fcd7d6}, !- Handle
  DOE-2;                                  !- Algorithm

OS:HeatBalanceAlgorithm,
  {9d93e563-e1e0-46d7-9e39-d1c8aceb7212}, !- Handle
  ConductionTransferFunction,             !- Algorithm
  200;                                    !- Surface Temperature Upper Limit {F}

OS:ZoneAirHeatBalanceAlgorithm,
  {8520d93e-310f-4696-9bcd-36228bfdd743}, !- Handle
  AnalyticalSolution;                     !- Algorithm

OS:ZoneAirContaminantBalance,
  {eb5fc3ae-fb22-4160-8fcb-3e3b22b000d3}; !- Handle

OS:ZoneCapacitanceMultiplier:ResearchSpecial,
  {4020ce4f-5a7a-4849-8028-8305d7b751b1}, !- Handle
  ,                                       !- Temperature Capacity Multiplier
  ,                                       !- Humidity Capacity Multiplier
  ;                                       !- Carbon Dioxide Capacity Multiplier

OS:RunPeriod,
  {28df894d-6af9-4fb8-8f56-df1753344aa3}, !- Handle
  Run Period 1,                           !- Name
  1,                                      !- Begin Month
  1,                                      !- Begin Day of Month
  12,                                     !- End Month
  31,                                     !- End Day of Month
  ,                                       !- Use Weather File Holidays and Special Days
  ,                                       !- Use Weather File Daylight Saving Period
  ,                                       !- Apply Weekend Holiday Rule
  ,                                       !- Use Weather File Rain Indicators
  ,                                       !- Use Weather File Snow Indicators
  ;                                       !- Number of Times Runperiod to be Repeated

OS:Building,
  {bf305633-c5a1-4881-9edf-ca5e1a8e1274}, !- Handle
  Building 1,                             !- Name
  ,                                       !- Building Sector Type
  ,                                       !- North Axis {deg}
  ,                                       !- Nominal Floor to Floor Height {m}
  ,                                       !- Space Type Name
  ,                                       !- Default Construction Set Name
  {a0527e6c-4de9-4809-ad88-210ea805c78f}, !- Default Schedule Set Name
  ,                                       !- Standards Number of Stories
  ,                                       !- Standards Number of Above Ground Stories
  ChildCare;                              !- Standards Building Type

OS:LifeCycleCost:Parameters,
  {231cf8a0-f0e7-4251-a99f-11f0d464e661}, !- Handle
  FEMP,                                   !- Analysis Type
  ,                                       !- Discounting Convention
  ,                                       !- Inflation Approach
  ,                                       !- Real Discount Rate
  ,                                       !- Nominal Discount Rate
  ,                                       !- Inflation
  ,                                       !- Base Date Month
  ,                                       !- Base Date Year
  ,                                       !- Service Date Month
  ,                                       !- Service Date Year
  ,                                       !- Length of Study Period in Years
  ,                                       !- Tax Rate
  ,                                       !- Depreciation Method
  Yes;                                    !- Use NIST Fuel Escalation Rates

OS:Facility,
  {3ba8e45b-b833-44eb-a723-ea6c3946dc96}; !- Handle

OS:SpaceType,
  {6622c9e1-f1f3-4283-9fd5-da15830fd5be}, !- Handle
  ChildCare|BlendEdu|DOE Ref 1980-2004|ASHRAE 169-2006-5A, !- Name
  {b15202bf-6d13-40d3-ac17-c81a38fe151e}, !- Default Construction Set Name
  ,                                       !- Default Schedule Set Name
  {d56d0006-a003-4e05-8be3-87b055db7b6a}, !- Group Rendering Name
  {2b11d8c4-04af-4b7d-8d5a-3d6f58462fe8}, !- Design Specification Outdoor Air Object Name
  ChildCare,                              !- Standards Building Type
  BlendEdu;                               !- Standards Space Type

OS:Rendering:Color,
  {d56d0006-a003-4e05-8be3-87b055db7b6a}, !- Handle
  Rendering Color 1,                      !- Name
  120,                                    !- Rendering Red Value
  230,                                    !- Rendering Green Value
  199;                                    !- Rendering Blue Value

OS:SpaceType,
  {b6b68eb4-f99b-47de-85b0-a1dd0272f8d7}, !- Handle
  ChildCare|Office|DOE Ref 1980-2004|ASHRAE 169-2006-5A, !- Name
  {b15202bf-6d13-40d3-ac17-c81a38fe151e}, !- Default Construction Set Name
  {9ef56912-1c40-4ca0-9b7b-6eb252d4edef}, !- Default Schedule Set Name
  {a713708e-17ec-4b53-b4f8-2e85bdbc2c7f}, !- Group Rendering Name
  {bb09fb50-0e75-47ff-b6ab-e7a7c0956793}, !- Design Specification Outdoor Air Object Name
  ChildCare,                              !- Standards Building Type
  Office;                                 !- Standards Space Type

OS:Rendering:Color,
  {a713708e-17ec-4b53-b4f8-2e85bdbc2c7f}, !- Handle
  Rendering Color 2,                      !- Name
  120,                                    !- Rendering Red Value
  230,                                    !- Rendering Green Value
  199;                                    !- Rendering Blue Value

OS:SpaceType,
  {e1412ad2-f727-4605-afab-d469756b9604}, !- Handle
  ChildCare|Restroom|DOE Ref 1980-2004|ASHRAE 169-2006-5A, !- Name
  {b15202bf-6d13-40d3-ac17-c81a38fe151e}, !- Default Construction Set Name
  {d2ef8b25-42ac-40ce-a6ad-cbfea07f26ae}, !- Default Schedule Set Name
  {662af397-7348-4cae-a289-0e0ce1b1591c}, !- Group Rendering Name
  {dbad28d6-6beb-41aa-896d-9dab41fc55a7}, !- Design Specification Outdoor Air Object Name
  ChildCare,                              !- Standards Building Type
  Restroom;                               !- Standards Space Type

OS:Rendering:Color,
  {662af397-7348-4cae-a289-0e0ce1b1591c}, !- Handle
  Rendering Color 3,                      !- Name
  169,                                    !- Rendering Red Value
  169,                                    !- Rendering Green Value
  31;                                     !- Rendering Blue Value

OS:Schedule:Ruleset,
  {2bfa7280-27a1-4fe9-bd04-2c7bed4385f8}, !- Handle
  0600|1900|ChildCare|default|hoo,        !- Name
  {f31c3b33-7e32-4768-99bd-c73fab5fd14c}, !- Schedule Type Limits Name
  {05e1242d-6338-477b-a957-e06128dcc757}, !- Default Day Schedule Name
  {b2c91011-3244-45fa-8172-e193946663fa}, !- Summer Design Day Schedule Name
  {1d502a2f-f506-44c5-9b38-f0b75e7c7c66}; !- Winter Design Day Schedule Name

OS:Schedule:Day,
  {05e1242d-6338-477b-a957-e06128dcc757}, !- Handle
  0600|1900|ChildCare|default|hoo Schedule Week Day, !- Name
  {f31c3b33-7e32-4768-99bd-c73fab5fd14c}, !- Schedule Type Limits Name
  ,                                       !- Interpolate to Timestep
  6,                                      !- Hour 1
  0,                                      !- Minute 1
  0,                                      !- Value Until Time 1
  19,                                     !- Hour 2
  0,                                      !- Minute 2
  1,                                      !- Value Until Time 2
  24,                                     !- Hour 3
  0,                                      !- Minute 3
  0;                                      !- Value Until Time 3

OS:Schedule:Day,
  {cedeec19-f020-401e-b6dc-c03cc4d4ac46}, !- Handle
  Schedule Day 2,                         !- Name
  ,                                       !- Schedule Type Limits Name
  ,                                       !- Interpolate to Timestep
  24,                                     !- Hour 1
  0,                                      !- Minute 1
  0;                                      !- Value Until Time 1

OS:Schedule:Day,
  {1d502a2f-f506-44c5-9b38-f0b75e7c7c66}, !- Handle
  0600|1900|ChildCare|default|hoo Winter Design Day, !- Name
  {f31c3b33-7e32-4768-99bd-c73fab5fd14c}, !- Schedule Type Limits Name
  ,                                       !- Interpolate to Timestep
  24,                                     !- Hour 1
  0,                                      !- Minute 1
  0;                                      !- Value Until Time 1

OS:Schedule:Day,
  {d00a0799-8f1b-4ccf-97cf-610900fef195}, !- Handle
  Schedule Day 3,                         !- Name
  ,                                       !- Schedule Type Limits Name
  ,                                       !- Interpolate to Timestep
  24,                                     !- Hour 1
  0,                                      !- Minute 1
  0;                                      !- Value Until Time 1

OS:Schedule:Day,
  {b2c91011-3244-45fa-8172-e193946663fa}, !- Handle
  0600|1900|ChildCare|default|hoo Summer Design Day, !- Name
  {f31c3b33-7e32-4768-99bd-c73fab5fd14c}, !- Schedule Type Limits Name
  ,                                       !- Interpolate to Timestep
  24,                                     !- Hour 1
  0,                                      !- Minute 1
  1;                                      !- Value Until Time 1

OS:DefaultScheduleSet,
  {a0527e6c-4de9-4809-ad88-210ea805c78f}, !- Handle
  Building Hours of Operation,            !- Name
  {2bfa7280-27a1-4fe9-bd04-2c7bed4385f8}, !- Hours of Operation Schedule Name
  ,                                       !- Number of People Schedule Name
  ,                                       !- People Activity Level Schedule Name
  ,                                       !- Lighting Schedule Name
  ,                                       !- Electric Equipment Schedule Name
  ,                                       !- Gas Equipment Schedule Name
  ,                                       !- Hot Water Equipment Schedule Name
  ,                                       !- Infiltration Schedule Name
  ,                                       !- Steam Equipment Schedule Name
  ;                                       !- Other Equipment Schedule Name

OS:ScheduleTypeLimits,
  {f31c3b33-7e32-4768-99bd-c73fab5fd14c}, !- Handle
  OnOff,                                  !- Name
  0,                                      !- Lower Limit Value {BasedOnField A4}
  1,                                      !- Upper Limit Value {BasedOnField A4}
  Discrete,                               !- Numeric Type
  Availability;                           !- Unit Type

OS:Schedule:Ruleset,
  {45e5d368-75cd-4858-9719-13539df63808}, !- Handle
  0600|1900|ChildCare|default|swh,        !- Name
  {a7e4142d-4b0c-4d47-9a4c-b446e34d93ce}, !- Schedule Type Limits Name
  {bdefcbac-4111-4cab-85dd-b40665e5c359}, !- Default Day Schedule Name
  {7e6afb0d-73fb-4740-91f7-6ae1fc25dece}, !- Summer Design Day Schedule Name
  {916090d2-361b-4cde-8f99-891c7e17e3aa}; !- Winter Design Day Schedule Name

OS:ScheduleTypeLimits,
  {a7e4142d-4b0c-4d47-9a4c-b446e34d93ce}, !- Handle
  Water Use Schedule Type Limits,         !- Name
  0,                                      !- Lower Limit Value {BasedOnField A4}
  1,                                      !- Upper Limit Value {BasedOnField A4}
  Continuous,                             !- Numeric Type
  Dimensionless;                          !- Unit Type

OS:Schedule:Day,
  {bdefcbac-4111-4cab-85dd-b40665e5c359}, !- Handle
  0600|1900|ChildCare|default|swh |default, !- Name
  {a7e4142d-4b0c-4d47-9a4c-b446e34d93ce}, !- Schedule Type Limits Name
  ,                                       !- Interpolate to Timestep
  24,                                     !- Hour 1
  0,                                      !- Minute 1
  0;                                      !- Value Until Time 1

OS:Schedule:Day,
  {7e6afb0d-73fb-4740-91f7-6ae1fc25dece}, !- Handle
  0600|1900|ChildCare|default|swh Summer Design Day, !- Name
  {a7e4142d-4b0c-4d47-9a4c-b446e34d93ce}, !- Schedule Type Limits Name
  ,                                       !- Interpolate to Timestep
  24,                                     !- Hour 1
  0,                                      !- Minute 1
  0;                                      !- Value Until Time 1

OS:Schedule:Day,
  {916090d2-361b-4cde-8f99-891c7e17e3aa}, !- Handle
  0600|1900|ChildCare|default|swh Winter Design Day, !- Name
  {a7e4142d-4b0c-4d47-9a4c-b446e34d93ce}, !- Schedule Type Limits Name
  ,                                       !- Interpolate to Timestep
  24,                                     !- Hour 1
  0,                                      !- Minute 1
  0;                                      !- Value Until Time 1

OS:Schedule:Rule,
  {3abde5ae-04ef-42ec-a15a-3bb8c3cfe362}, !- Handle
  0600|1900|ChildCare|default|swh |1/1-12/31|Sat/Sun Rule, !- Name
  {45e5d368-75cd-4858-9719-13539df63808}, !- Schedule Ruleset Name
  0,                                      !- Rule Order
  {7f51e381-4f6d-4358-9fad-7dd5937e91b0}, !- Day Schedule Name
  Yes,                                    !- Apply Sunday
  ,                                       !- Apply Monday
  ,                                       !- Apply Tuesday
  ,                                       !- Apply Wednesday
  ,                                       !- Apply Thursday
  ,                                       !- Apply Friday
  Yes,                                    !- Apply Saturday
  ,                                       !- Apply Holiday
  DateRange,                              !- Date Specification Type
  1,                                      !- Start Month
  1,                                      !- Start Day
  12,                                     !- End Month
  31;                                     !- End Day

OS:Schedule:Day,
  {7f51e381-4f6d-4358-9fad-7dd5937e91b0}, !- Handle
  0600|1900|ChildCare|default|swh |1/1-12/31|Sat/Sun, !- Name
  {a7e4142d-4b0c-4d47-9a4c-b446e34d93ce}, !- Schedule Type Limits Name
  ,                                       !- Interpolate to Timestep
  24,                                     !- Hour 1
  0,                                      !- Minute 1
  0;                                      !- Value Until Time 1

OS:Schedule:Ruleset,
  {de9b089a-09e8-4d28-b01e-e60cf9647f1e}, !- Handle
  0600|1900|ChildCare|default|rh,         !- Name
  {edb5fcd8-5043-44e3-a99f-0fb768cfa1f6}, !- Schedule Type Limits Name
  {74d885ee-435b-4f55-827c-43c6f46aca07}, !- Default Day Schedule Name
  {7a8335bf-2a0f-42e5-9c45-e0cfbcfda651}, !- Summer Design Day Schedule Name
  {af19a68d-6f71-4444-b2a1-63930defc225}; !- Winter Design Day Schedule Name

OS:ScheduleTypeLimits,
  {edb5fcd8-5043-44e3-a99f-0fb768cfa1f6}, !- Handle
  Dimensionless Schedule Type Limits,     !- Name
  ,                                       !- Lower Limit Value {BasedOnField A4}
  ,                                       !- Upper Limit Value {BasedOnField A4}
  Continuous,                             !- Numeric Type
  Dimensionless;                          !- Unit Type

OS:Schedule:Day,
  {74d885ee-435b-4f55-827c-43c6f46aca07}, !- Handle
  0600|1900|ChildCare|default|rh |default, !- Name
  {edb5fcd8-5043-44e3-a99f-0fb768cfa1f6}, !- Schedule Type Limits Name
  ,                                       !- Interpolate to Timestep
  24,                                     !- Hour 1
  0,                                      !- Minute 1
  50;                                     !- Value Until Time 1

OS:Schedule:Day,
  {7a8335bf-2a0f-42e5-9c45-e0cfbcfda651}, !- Handle
  0600|1900|ChildCare|default|rh Summer Design Day, !- Name
  {edb5fcd8-5043-44e3-a99f-0fb768cfa1f6}, !- Schedule Type Limits Name
  ,                                       !- Interpolate to Timestep
  24,                                     !- Hour 1
  0,                                      !- Minute 1
  50;                                     !- Value Until Time 1

OS:Schedule:Day,
  {af19a68d-6f71-4444-b2a1-63930defc225}, !- Handle
  0600|1900|ChildCare|default|rh Winter Design Day, !- Name
  {edb5fcd8-5043-44e3-a99f-0fb768cfa1f6}, !- Schedule Type Limits Name
  ,                                       !- Interpolate to Timestep
  24,                                     !- Hour 1
  0,                                      !- Minute 1
  50;                                     !- Value Until Time 1

OS:Schedule:Ruleset,
  {9c714044-42e1-4f41-a552-cca6eb02ad8a}, !- Handle
  0600|1900|ChildCare|default|activity,   !- Name
  {7958c580-5a39-4ab9-998f-a63431311dfd}, !- Schedule Type Limits Name
  {5ad12371-91ae-4a8b-84f7-6d3bbdfa180b}, !- Default Day Schedule Name
  {ad8a536b-d405-4580-8094-c891b09e75b0}, !- Summer Design Day Schedule Name
  {bef97a82-6ae6-4240-b047-f9b145119c72}; !- Winter Design Day Schedule Name

OS:ScheduleTypeLimits,
  {7958c580-5a39-4ab9-998f-a63431311dfd}, !- Handle
  People Activity Type Limits,            !- Name
  0,                                      !- Lower Limit Value {BasedOnField A4}
  ,                                       !- Upper Limit Value {BasedOnField A4}
  Continuous,                             !- Numeric Type
  ActivityLevel;                          !- Unit Type

OS:Schedule:Day,
  {5ad12371-91ae-4a8b-84f7-6d3bbdfa180b}, !- Handle
  0600|1900|ChildCare|default|activity |default, !- Name
  {7958c580-5a39-4ab9-998f-a63431311dfd}, !- Schedule Type Limits Name
  ,                                       !- Interpolate to Timestep
  24,                                     !- Hour 1
  0,                                      !- Minute 1
  120;                                    !- Value Until Time 1

OS:Schedule:Day,
  {ad8a536b-d405-4580-8094-c891b09e75b0}, !- Handle
  0600|1900|ChildCare|default|activity Summer Design Day, !- Name
  {7958c580-5a39-4ab9-998f-a63431311dfd}, !- Schedule Type Limits Name
  ,                                       !- Interpolate to Timestep
  24,                                     !- Hour 1
  0,                                      !- Minute 1
  120;                                    !- Value Until Time 1

OS:Schedule:Day,
  {bef97a82-6ae6-4240-b047-f9b145119c72}, !- Handle
  0600|1900|ChildCare|default|activity Winter Design Day, !- Name
  {7958c580-5a39-4ab9-998f-a63431311dfd}, !- Schedule Type Limits Name
  ,                                       !- Interpolate to Timestep
  24,                                     !- Hour 1
  0,                                      !- Minute 1
  120;                                    !- Value Until Time 1

OS:Schedule:Ruleset,
  {85ad7bfd-54f2-42cb-a5e0-a35a44a1329a}, !- Handle
  0600|1900|ChildCare|default|work_eff,   !- Name
  {ca031f66-1f0d-4c68-88dd-c2b7c8bd39bc}, !- Schedule Type Limits Name
  {281e1627-b2ae-494e-be58-307bce1c6a85}, !- Default Day Schedule Name
  {87da62dc-fbee-4610-bdf4-49a157e58189}, !- Summer Design Day Schedule Name
  {3d10bf02-bb12-4ea0-9952-d74c36be10bf}; !- Winter Design Day Schedule Name

OS:ScheduleTypeLimits,
  {ca031f66-1f0d-4c68-88dd-c2b7c8bd39bc}, !- Handle
  Fraction Schedule Type Limits,          !- Name
  0,                                      !- Lower Limit Value {BasedOnField A4}
  1,                                      !- Upper Limit Value {BasedOnField A4}
  Continuous,                             !- Numeric Type
  Dimensionless;                          !- Unit Type

OS:Schedule:Day,
  {281e1627-b2ae-494e-be58-307bce1c6a85}, !- Handle
  0600|1900|ChildCare|default|work_eff |default, !- Name
  {ca031f66-1f0d-4c68-88dd-c2b7c8bd39bc}, !- Schedule Type Limits Name
  ,                                       !- Interpolate to Timestep
  24,                                     !- Hour 1
  0,                                      !- Minute 1
  0;                                      !- Value Until Time 1

OS:Schedule:Day,
  {87da62dc-fbee-4610-bdf4-49a157e58189}, !- Handle
  0600|1900|ChildCare|default|work_eff Summer Design Day, !- Name
  {ca031f66-1f0d-4c68-88dd-c2b7c8bd39bc}, !- Schedule Type Limits Name
  ,                                       !- Interpolate to Timestep
  24,                                     !- Hour 1
  0,                                      !- Minute 1
  0;                                      !- Value Until Time 1

OS:Schedule:Day,
  {3d10bf02-bb12-4ea0-9952-d74c36be10bf}, !- Handle
  0600|1900|ChildCare|default|work_eff Winter Design Day, !- Name
  {ca031f66-1f0d-4c68-88dd-c2b7c8bd39bc}, !- Schedule Type Limits Name
  ,                                       !- Interpolate to Timestep
  24,                                     !- Hour 1
  0,                                      !- Minute 1
  0;                                      !- Value Until Time 1

OS:Schedule:Ruleset,
  {20aca1d5-a66a-4548-b672-b1b2a678d438}, !- Handle
  0600|1900|ChildCare|default|ext_lighting, !- Name
  {7602c32a-30f9-42b2-9206-654c2c0a16e2}, !- Schedule Type Limits Name
  {cfa6a1aa-18c0-421d-834b-971eb2ff06be}, !- Default Day Schedule Name
  {bf3c6051-85e5-471d-99ed-13fca7d60dbd}, !- Summer Design Day Schedule Name
  {482256e2-14c3-43db-a8b7-5c3fdb0cb453}; !- Winter Design Day Schedule Name

OS:ScheduleTypeLimits,
  {7602c32a-30f9-42b2-9206-654c2c0a16e2}, !- Handle
  Lights Schedule Type Limits,            !- Name
  0,                                      !- Lower Limit Value {BasedOnField A4}
  1,                                      !- Upper Limit Value {BasedOnField A4}
  Continuous,                             !- Numeric Type
  Dimensionless;                          !- Unit Type

OS:Schedule:Day,
  {cfa6a1aa-18c0-421d-834b-971eb2ff06be}, !- Handle
  0600|1900|ChildCare|default|ext_lighting |default, !- Name
  {7602c32a-30f9-42b2-9206-654c2c0a16e2}, !- Schedule Type Limits Name
  ,                                       !- Interpolate to Timestep
  24,                                     !- Hour 1
  0,                                      !- Minute 1
  1;                                      !- Value Until Time 1

OS:Schedule:Day,
  {bf3c6051-85e5-471d-99ed-13fca7d60dbd}, !- Handle
  0600|1900|ChildCare|default|ext_lighting Summer Design Day, !- Name
  {7602c32a-30f9-42b2-9206-654c2c0a16e2}, !- Schedule Type Limits Name
  ,                                       !- Interpolate to Timestep
  24,                                     !- Hour 1
  0,                                      !- Minute 1
  1;                                      !- Value Until Time 1

OS:Schedule:Day,
  {482256e2-14c3-43db-a8b7-5c3fdb0cb453}, !- Handle
  0600|1900|ChildCare|default|ext_lighting Winter Design Day, !- Name
  {7602c32a-30f9-42b2-9206-654c2c0a16e2}, !- Schedule Type Limits Name
  ,                                       !- Interpolate to Timestep
  24,                                     !- Hour 1
  0,                                      !- Minute 1
  1;                                      !- Value Until Time 1

OS:Schedule:Ruleset,
  {ecd54dcd-38ed-4ca2-ab83-ad53db9baf9b}, !- Handle
  0600|1900|ChildCare|default|clg_setpoint, !- Name
  {20f7df1d-50f7-4ae4-92a6-717ce110d685}, !- Schedule Type Limits Name
  {dcce448c-9fd9-4856-b86f-f3e2e47c1118}, !- Default Day Schedule Name
  {fcc7a940-33f2-4611-99bf-e93055fa6188}, !- Summer Design Day Schedule Name
  {22f73280-4171-4de0-b16a-4f116aae0d0b}; !- Winter Design Day Schedule Name

OS:ScheduleTypeLimits,
  {20f7df1d-50f7-4ae4-92a6-717ce110d685}, !- Handle
  Thermostat Cooling Setpoint Schedule Type Limits, !- Name
  0,                                      !- Lower Limit Value {BasedOnField A4}
  100,                                    !- Upper Limit Value {BasedOnField A4}
  Continuous,                             !- Numeric Type
  Temperature;                            !- Unit Type

OS:Schedule:Day,
  {dcce448c-9fd9-4856-b86f-f3e2e47c1118}, !- Handle
  0600|1900|ChildCare|default|clg_setpoint |default, !- Name
  {20f7df1d-50f7-4ae4-92a6-717ce110d685}, !- Schedule Type Limits Name
  ,                                       !- Interpolate to Timestep
  24,                                     !- Hour 1
  0,                                      !- Minute 1
  24.0000000000001;                       !- Value Until Time 1

OS:Schedule:Day,
  {fcc7a940-33f2-4611-99bf-e93055fa6188}, !- Handle
  0600|1900|ChildCare|default|clg_setpoint Summer Design Day, !- Name
  {20f7df1d-50f7-4ae4-92a6-717ce110d685}, !- Schedule Type Limits Name
  ,                                       !- Interpolate to Timestep
  24,                                     !- Hour 1
  0,                                      !- Minute 1
  24.0000000000001;                       !- Value Until Time 1

OS:Schedule:Day,
  {22f73280-4171-4de0-b16a-4f116aae0d0b}, !- Handle
  0600|1900|ChildCare|default|clg_setpoint Winter Design Day, !- Name
  {20f7df1d-50f7-4ae4-92a6-717ce110d685}, !- Schedule Type Limits Name
  ,                                       !- Interpolate to Timestep
  24,                                     !- Hour 1
  0,                                      !- Minute 1
  24.0000000000001;                       !- Value Until Time 1

OS:Schedule:Ruleset,
  {a852e2ad-d546-4b42-8d50-9ccc9c7964a0}, !- Handle
  0600|1900|ChildCare|default|infiltration, !- Name
  {ca031f66-1f0d-4c68-88dd-c2b7c8bd39bc}, !- Schedule Type Limits Name
  {9526bc5d-1706-4ac4-8fc2-a126822e749c}, !- Default Day Schedule Name
  {3be3dc96-8435-4399-9e86-c13b4ea4ccba}, !- Summer Design Day Schedule Name
  {5b0b9473-1fae-4faf-98a9-eed5604c7aa0}; !- Winter Design Day Schedule Name

OS:Schedule:Day,
  {9526bc5d-1706-4ac4-8fc2-a126822e749c}, !- Handle
  0600|1900|ChildCare|default|infiltration |default, !- Name
  {ca031f66-1f0d-4c68-88dd-c2b7c8bd39bc}, !- Schedule Type Limits Name
  ,                                       !- Interpolate to Timestep
  5,                                      !- Hour 1
  0,                                      !- Minute 1
  1,                                      !- Value Until Time 1
  22,                                     !- Hour 2
  0,                                      !- Minute 2
  0.5,                                    !- Value Until Time 2
  24,                                     !- Hour 3
  0,                                      !- Minute 3
  1;                                      !- Value Until Time 3

OS:Schedule:Day,
  {3be3dc96-8435-4399-9e86-c13b4ea4ccba}, !- Handle