
OS:Version,
  {d721f5e6-f9db-4bad-9851-7f6b29b94bad}, !- Handle
  1.6.0;                                  !- Version Identifier

OS:ClimateZones,
  {135edfab-17e7-40db-a436-27d385a8cd6d}, !- Handle
  ,                                       !- Active Institution
  ,                                       !- Active Year
  ASHRAE,                                 !- Climate Zone Institution Name 1
  ANSI/ASHRAE Standard 169,               !- Climate Zone Document Name 1
  2006,                                   !- Climate Zone Document Year 1
  ,                                       !- Climate Zone Value 1
  CEC,                                    !- Climate Zone Institution Name 2
  California Climate Zone Descriptions,   !- Climate Zone Document Name 2
  1995,                                   !- Climate Zone Document Year 2
  ;                                       !- Climate Zone Value 2

OS:YearDescription,
  {513d8dda-86cb-442a-b01c-1f7f0e0ac70e}; !- Handle

OS:RadianceParameters,
  {270a96f1-3c86-4b75-a667-cdf22790e2c8}, !- Handle
  1,                                      !- Accumulated Rays per Record
  0,                                      !- Direct Threshold
  1,                                      !- Direct Certainty
  1,                                      !- Direct Jitter
  1,                                      !- Direct Pretest
  6,                                      !- Ambient Bounces VMX
  2,                                      !- Ambient Bounces DMX
  4050,                                   !- Ambient Divisions VMX
  512,                                    !- Ambient Divisions DMX
  256,                                    !- Ambient Supersamples
  0.001,                                  !- Limit Weight VMX
  0.001,                                  !- Limit Weight DMX
  500,                                    !- Klems Sampling Density
  146;                                    !- Sky Discretization Resolution

OS:SimulationControl,
  {2c487a4c-bac9-4ac5-b669-1e49d9da7c2b}, !- Handle
  ,                                       !- Do Zone Sizing Calculation
  ,                                       !- Do System Sizing Calculation
  ,                                       !- Do Plant Sizing Calculation
  No,                                     !- Run Simulation for Sizing Periods
  ,                                       !- Run Simulation for Weather File Run Periods
  0.04,                                   !- Loads Convergence Tolerance Value
  ,                                       !- Temperature Convergence Tolerance Value {deltaC}
  ,                                       !- Solar Distribution
  ,                                       !- Maximum Number of Warmup Days
  2;                                      !- Minimum Number of Warmup Days

OS:Sizing:Parameters,
  {dde5af6f-7923-4600-a28a-7556673a0266}, !- Handle
  1.25,                                   !- Heating Sizing Factor
  1.15;                                   !- Cooling Sizing Factor

OS:ProgramControl,
  {05027a99-f2b3-4aeb-afc6-1425fbb4371d}; !- Handle

OS:Timestep,
  {4ebc9f1e-4707-402e-9844-67eb1ffbd522}, !- Handle
  2;                                      !- Number of Timesteps per Hour

OS:OutputControl:ReportingTolerances,
  {65797aa2-06a9-45fe-b69d-bc6e060399d3}; !- Handle

OS:ConvergenceLimits,
  {9fc11aba-8822-4f3d-970c-46391ba4040d}; !- Handle

OS:ShadowCalculation,
  {ca758bea-4416-4626-9bba-3d8795c79bd6}, !- Handle
  7,                                      !- Calculation Frequency
  15000;                                  !- Maximum Figures in Shadow Overlap Calculations

OS:SurfaceConvectionAlgorithm:Inside,
  {aaabfc36-718a-4ab0-b622-f186ebb45230}, !- Handle
  TARP;                                   !- Algorithm

OS:SurfaceConvectionAlgorithm:Outside,
  {9a0a9f6f-4bbd-4b12-a121-9492a1fcd7d6}, !- Handle
  DOE-2;                                  !- Algorithm

OS:HeatBalanceAlgorithm,
  {9d93e563-e1e0-46d7-9e39-d1c8aceb7212}, !- Handle
  ConductionTransferFunction,             !- Algorithm
  200;                                    !- Surface Temperature Upper Limit {F}

OS:ZoneAirHeatBalanceAlgorithm,
  {8520d93e-310f-4696-9bcd-36228bfdd743}, !- Handle
  AnalyticalSolution;                     !- Algorithm

OS:ZoneAirContaminantBalance,
  {eb5fc3ae-fb22-4160-8fcb-3e3b22b000d3}; !- Handle

OS:ZoneCapacitanceMultiplier:ResearchSpecial,
  {4020ce4f-5a7a-4849-8028-8305d7b751b1}, !- Handle
  ,                                       !- Temperature Capacity Multiplier
  ,                                       !- Humidity Capacity Multiplier
  ;                                       !- Carbon Dioxide Capacity Multiplier

OS:RunPeriod,
  {28df894d-6af9-4fb8-8f56-df1753344aa3}, !- Handle
  Run Period 1,                           !- Name
  1,                                      !- Begin Month
  1,                                      !- Begin Day of Month
  12,                                     !- End Month
  31,                                     !- End Day of Month
  ,                                       !- Use Weather File Holidays and Special Days
  ,                                       !- Use Weather File Daylight Saving Period
  ,                                       !- Apply Weekend Holiday Rule
  ,                                       !- Use Weather File Rain Indicators
  ,                                       !- Use Weather File Snow Indicators
  ;                                       !- Number of Times Runperiod to be Repeated

OS:Building,
  {bf305633-c5a1-4881-9edf-ca5e1a8e1274}, !- Handle
  Building 1,                             !- Name
  ,                                       !- Building Sector Type
  ,                                       !- North Axis {deg}
  ,                                       !- Nominal Floor to Floor Height {m}
  ,                                       !- Space Type Name
  ,                                       !- Default Construction Set Name
  {a6a6953c-f1de-4eb4-b01d-901837129c88}, !- Default Schedule Set Name
  ,                                       !- Standards Number of Stories
  ,                                       !- Standards Number of Above Ground Stories
  ChildCare;                              !- Standards Building Type

OS:LifeCycleCost:Parameters,
  {231cf8a0-f0e7-4251-a99f-11f0d464e661}, !- Handle
  FEMP,                                   !- Analysis Type
  ,                                       !- Discounting Convention
  ,                                       !- Inflation Approach
  ,                                       !- Real Discount Rate
  ,                                       !- Nominal Discount Rate
  ,                                       !- Inflation
  ,                                       !- Base Date Month
  ,                                       !- Base Date Year
  ,                                       !- Service Date Month
  ,                                       !- Service Date Year
  ,                                       !- Length of Study Period in Years
  ,                                       !- Tax Rate
  ,                                       !- Depreciation Method
  Yes;                                    !- Use NIST Fuel Escalation Rates

OS:Facility,
  {3ba8e45b-b833-44eb-a723-ea6c3946dc96}; !- Handle

OS:SpaceType,
  {ed2327b3-ce75-4c17-a695-a369e5e28abd}, !- Handle
  ChildCare|BlendEdu|DOE Ref 1980-2004|ASHRAE 169-2006-5A, !- Name
  {feb16304-7c89-4585-9e61-78ea3811b41b}, !- Default Construction Set Name
  ,                                       !- Default Schedule Set Name
  {ee8f8180-9680-4af0-b6f1-515560dca74d}, !- Group Rendering Name
  {10abcbd3-5561-4ae2-8a5a-3219a863e343}, !- Design Specification Outdoor Air Object Name
  ChildCare,                              !- Standards Building Type
  BlendEdu;                               !- Standards Space Type

OS:Rendering:Color,
  {ee8f8180-9680-4af0-b6f1-515560dca74d}, !- Handle
  Rendering Color 1,                      !- Name
  120,                                    !- Rendering Red Value
  230,                                    !- Rendering Green Value
  199;                                    !- Rendering Blue Value

OS:SpaceType,
  {63a44c40-3fcf-490d-968b-c356f7cbc3f1}, !- Handle
  ChildCare|Office|DOE Ref 1980-2004|ASHRAE 169-2006-5A, !- Name
  {feb16304-7c89-4585-9e61-78ea3811b41b}, !- Default Construction Set Name
  {bfa138ba-bc14-47cc-9817-270172bbd859}, !- Default Schedule Set Name
  {0528bf25-b1ff-4320-a8ad-f9ba4f97d5f2}, !- Group Rendering Name
  {98a3267a-872f-4d9e-b612-fdf5ac071095}, !- Design Specification Outdoor Air Object Name
  ChildCare,                              !- Standards Building Type
  Office;                                 !- Standards Space Type

OS:Rendering:Color,
  {0528bf25-b1ff-4320-a8ad-f9ba4f97d5f2}, !- Handle
  Rendering Color 2,                      !- Name
  120,                                    !- Rendering Red Value
  230,                                    !- Rendering Green Value
  199;                                    !- Rendering Blue Value

OS:SpaceType,
  {aa78a0c3-e4fd-4575-99ab-e3ef0d04565f}, !- Handle
  ChildCare|Restroom|DOE Ref 1980-2004|ASHRAE 169-2006-5A, !- Name
  {feb16304-7c89-4585-9e61-78ea3811b41b}, !- Default Construction Set Name
  {501737d5-1a77-4437-a5a6-fbc7ef80fe35}, !- Default Schedule Set Name
  {4f2beb4d-aae6-4e3c-94a2-e8e6bb0b7c31}, !- Group Rendering Name
  {6f726e79-0158-43b6-9067-afd0e3942e0b}, !- Design Specification Outdoor Air Object Name
  ChildCare,                              !- Standards Building Type
  Restroom;                               !- Standards Space Type

OS:Rendering:Color,
  {4f2beb4d-aae6-4e3c-94a2-e8e6bb0b7c31}, !- Handle
  Rendering Color 3,                      !- Name
  169,                                    !- Rendering Red Value
  169,                                    !- Rendering Green Value
  31;                                     !- Rendering Blue Value

OS:Schedule:Ruleset,
  {719fdf0c-7513-47ac-bac5-573cba73eb83}, !- Handle
  0600|1900|ChildCare|default|hoo,        !- Name
  {6bfb437f-016c-430c-9369-f56c983161b2}, !- Schedule Type Limits Name
  {011395fa-53d4-4fc2-98a4-5c65cef12c22}, !- Default Day Schedule Name
  {b7c6c57b-1af5-44eb-a70e-3dec030f4633}, !- Summer Design Day Schedule Name
  {4da52a6b-dcdc-4910-ae9b-d73f502dee97}; !- Winter Design Day Schedule Name

OS:Schedule:Day,
  {011395fa-53d4-4fc2-98a4-5c65cef12c22}, !- Handle
  0600|1900|ChildCare|default|hoo Schedule Week Day, !- Name
  {6bfb437f-016c-430c-9369-f56c983161b2}, !- Schedule Type Limits Name
  ,                                       !- Interpolate to Timestep
  6,                                      !- Hour 1
  0,                                      !- Minute 1
  0,                                      !- Value Until Time 1
  19,                                     !- Hour 2
  0,                                      !- Minute 2
  1,                                      !- Value Until Time 2
  24,                                     !- Hour 3
  0,                                      !- Minute 3
  0;                                      !- Value Until Time 3

OS:Schedule:Day,
  {a4d5cd98-0121-4c08-b3fa-513e1c66618c}, !- Handle
  Schedule Day 2,                         !- Name
  ,                                       !- Schedule Type Limits Name
  ,                                       !- Interpolate to Timestep
  24,                                     !- Hour 1
  0,                                      !- Minute 1
  0;                                      !- Value Until Time 1

OS:Schedule:Day,
  {4da52a6b-dcdc-4910-ae9b-d73f502dee97}, !- Handle
  0600|1900|ChildCare|default|hoo Winter Design Day, !- Name
  {6bfb437f-016c-430c-9369-f56c983161b2}, !- Schedule Type Limits Name
  ,                                       !- Interpolate to Timestep
  24,                                     !- Hour 1
  0,                                      !- Minute 1
  0;                                      !- Value Until Time 1

OS:Schedule:Day,
  {f4015dd2-db0e-4561-b2a8-53375bcb9e3d}, !- Handle
  Schedule Day 3,                         !- Name
  ,                                       !- Schedule Type Limits Name
  ,                                       !- Interpolate to Timestep
  24,                                     !- Hour 1
  0,                                      !- Minute 1
  0;                                      !- Value Until Time 1

OS:Schedule:Day,
  {b7c6c57b-1af5-44eb-a70e-3dec030f4633}, !- Handle
  0600|1900|ChildCare|default|hoo Summer Design Day, !- Name
  {6bfb437f-016c-430c-9369-f56c983161b2}, !- Schedule Type Limits Name
  ,                                       !- Interpolate to Timestep
  24,                                     !- Hour 1
  0,                                      !- Minute 1
  1;                                      !- Value Until Time 1

OS:DefaultScheduleSet,
  {a6a6953c-f1de-4eb4-b01d-901837129c88}, !- Handle
  Building Hours of Operation,            !- Name
  {719fdf0c-7513-47ac-bac5-573cba73eb83}, !- Hours of Operation Schedule Name
  ,                                       !- Number of People Schedule Name
  ,                                       !- People Activity Level Schedule Name
  ,                                       !- Lighting Schedule Name
  ,                                       !- Electric Equipment Schedule Name
  ,                                       !- Gas Equipment Schedule Name
  ,                                       !- Hot Water Equipment Schedule Name
  ,                                       !- Infiltration Schedule Name
  ,                                       !- Steam Equipment Schedule Name
  ;                                       !- Other Equipment Schedule Name

OS:ScheduleTypeLimits,
  {6bfb437f-016c-430c-9369-f56c983161b2}, !- Handle
  OnOff,                                  !- Name
  0,                                      !- Lower Limit Value {BasedOnField A4}
  1,                                      !- Upper Limit Value {BasedOnField A4}
  Discrete,                               !- Numeric Type
  Availability;                           !- Unit Type

OS:Schedule:Ruleset,
  {6e1da82d-bb16-4e08-a9d0-d003e32afeee}, !- Handle
  0600|1900|ChildCare|default|activity,   !- Name
  {7eed157c-2b75-4c52-af8a-9cdab8a9ff95}, !- Schedule Type Limits Name
  {de51c671-f26e-43d8-ae6a-5228a600db05}, !- Default Day Schedule Name
  {208724cf-d29c-459a-a5ea-da8669592b58}, !- Summer Design Day Schedule Name
  {56ce4846-3bd1-41b0-b6b9-54dbd4828f6c}; !- Winter Design Day Schedule Name

OS:ScheduleTypeLimits,
  {7eed157c-2b75-4c52-af8a-9cdab8a9ff95}, !- Handle
  People Activity Type Limits,            !- Name
  0,                                      !- Lower Limit Value {BasedOnField A4}
  ,                                       !- Upper Limit Value {BasedOnField A4}
  Continuous,                             !- Numeric Type
  ActivityLevel;                          !- Unit Type

OS:Schedule:Day,
  {de51c671-f26e-43d8-ae6a-5228a600db05}, !- Handle
  0600|1900|ChildCare|default|activity |default, !- Name
  {7eed157c-2b75-4c52-af8a-9cdab8a9ff95}, !- Schedule Type Limits Name
  ,                                       !- Interpolate to Timestep
  24,                                     !- Hour 1
  0,                                      !- Minute 1
  120;                                    !- Value Until Time 1

OS:Schedule:Day,
  {208724cf-d29c-459a-a5ea-da8669592b58}, !- Handle
  0600|1900|ChildCare|default|activity Summer Design Day, !- Name
  {7eed157c-2b75-4c52-af8a-9cdab8a9ff95}, !- Schedule Type Limits Name
  ,                                       !- Interpolate to Timestep
  24,                                     !- Hour 1
  0,                                      !- Minute 1
  120;                                    !- Value Until Time 1

OS:Schedule:Day,
  {56ce4846-3bd1-41b0-b6b9-54dbd4828f6c}, !- Handle
  0600|1900|ChildCare|default|activity Winter Design Day, !- Name
  {7eed157c-2b75-4c52-af8a-9cdab8a9ff95}, !- Schedule Type Limits Name
  ,                                       !- Interpolate to Timestep
  24,                                     !- Hour 1
  0,                                      !- Minute 1
  120;                                    !- Value Until Time 1

OS:Schedule:Ruleset,
  {04806ff9-08cb-4e2b-9884-43465a22bb64}, !- Handle
  0600|1900|ChildCare|default|infiltration, !- Name
  {ead61637-b438-463b-ab27-88c97196c5cd}, !- Schedule Type Limits Name
  {4f84d694-6a2f-4826-a677-1135dc1ea2c1}, !- Default Day Schedule Name
  {6796c1e7-2c5d-4719-991e-832d4e51c5cc}, !- Summer Design Day Schedule Name
  {ad04a5f5-b4ec-4ec1-b858-03afc61cc023}; !- Winter Design Day Schedule Name

OS:ScheduleTypeLimits,
  {ead61637-b438-463b-ab27-88c97196c5cd}, !- Handle
  Fraction Schedule Type Limits,          !- Name
  0,                                      !- Lower Limit Value {BasedOnField A4}
  1,                                      !- Upper Limit Value {BasedOnField A4}
  Continuous,                             !- Numeric Type
  Dimensionless;                          !- Unit Type

OS:Schedule:Day,
  {4f84d694-6a2f-4826-a677-1135dc1ea2c1}, !- Handle
  0600|1900|ChildCare|default|infiltration |default, !- Name
  {ead61637-b438-463b-ab27-88c97196c5cd}, !- Schedule Type Limits Name
  ,                                       !- Interpolate to Timestep
  5,                                      !- Hour 1
  0,                                      !- Minute 1
  1,                                      !- Value Until Time 1
  22,                                     !- Hour 2
  0,                                      !- Minute 2
  0.5,                                    !- Value Until Time 2
  24,                                     !- Hour 3
  0,                                      !- Minute 3
  1;                                      !- Value Until Time 3

OS:Schedule:Day,
  {6796c1e7-2c5d-4719-991e-832d4e51c5cc}, !- Handle
  0600|1900|ChildCare|default|infiltration Summer Design Day, !- Name
  {ead61637-b438-463b-ab27-88c97196c5cd}, !- Schedule Type Limits Name
  ,                                       !- Interpolate to Timestep
  5,                                      !- Hour 1
  0,                                      !- Minute 1
  1,                                      !- Value Until Time 1
  22,                                     !- Hour 2
  0,                                      !- Minute 2
  0.5,                                    !- Value Until Time 2
  24,                                     !- Hour 3
  0,                                      !- Minute 3
  1;                                      !- Value Until Time 3

OS:Schedule:Day,
  {ad04a5f5-b4ec-4ec1-b858-03afc61cc023}, !- Handle
  0600|1900|ChildCare|default|infiltration Winter Design Day, !- Name
  {ead61637-b438-463b-ab27-88c97196c5cd}, !- Schedule Type Limits Name
  ,                                       !- Interpolate to Timestep
  5,                                      !- Hour 1
  0,                                      !- Minute 1
  1,                                      !- Value Until Time 1
  22,                                     !- Hour 2
  0,                                      !- Minute 2
  0.5,                                    !- Value Until Time 2
  24,                                     !- Hour 3
  0,                                      !- Minute 3
  1;                                      !- Value Until Time 3

OS:Schedule:Ruleset,
  {f2cd281b-c02f-4a4f-8d82-a01b8246dba7}, !- Handle
  0600|1900|ChildCare|default|rh,         !- Name
  {098bdc86-896c-4d6c-bb4b-55d15faaddd8}, !- Schedule Type Limits Name
  {a70f5390-c7a4-4f20-9e11-09e4624c912d}, !- Default Day Schedule Name
  {1bdfb137-10f8-49ab-b0c6-d4e9a4b63485}, !- Summer Design Day Schedule Name
  {36b74bc3-88ba-456b-9f87-e2403db926a7}; !- Winter Design Day Schedule Name

OS:ScheduleTypeLimits,
  {098bdc86-896c-4d6c-bb4b-55d15faaddd8}, !- Handle
  Dimensionless Schedule Type Limits,     !- Name
  ,                                       !- Lower Limit Value {BasedOnField A4}
  ,                                       !- Upper Limit Value {BasedOnField A4}
  Continuous,                             !- Numeric Type
  Dimensionless;                          !- Unit Type

OS:Schedule:Day,
  {a70f5390-c7a4-4f20-9e11-09e4624c912d}, !- Handle
  0600|1900|ChildCare|default|rh |default, !- Name
  {098bdc86-896c-4d6c-bb4b-55d15faaddd8}, !- Schedule Type Limits Name
  ,                                       !- Interpolate to Timestep
  24,                                     !- Hour 1
  0,                                      !- Minute 1
  50;                                     !- Value Until Time 1

OS:Schedule:Day,
  {1bdfb137-10f8-49ab-b0c6-d4e9a4b63485}, !- Handle
  0600|1900|ChildCare|default|rh Summer Design Day, !- Name
  {098bdc86-896c-4d6c-bb4b-55d15faaddd8}, !- Schedule Type Limits Name
  ,                                       !- Interpolate to Timestep
  24,                                     !- Hour 1
  0,                                      !- Minute 1
  50;                                     !- Value Until Time 1

OS:Schedule:Day,
  {36b74bc3-88ba-456b-9f87-e2403db926a7}, !- Handle
  0600|1900|ChildCare|default|rh Winter Design Day, !- Name
  {098bdc86-896c-4d6c-bb4b-55d15faaddd8}, !- Schedule Type Limits Name
  ,                                       !- Interpolate to Timestep
  24,                                     !- Hour 1
  0,                                      !- Minute 1
  50;                                     !- Value Until Time 1

OS:Schedule:Ruleset,
  {b2fba7a2-acc8-4087-82c2-abaec4fe90ba}, !- Handle
  0600|1900|ChildCare|default|air_velocity, !- Name
  {098bdc86-896c-4d6c-bb4b-55d15faaddd8}, !- Schedule Type Limits Name
  {c1041fcf-be62-4752-ad54-b31cc15d5380}, !- Default Day Schedule Name
  {f47aa031-59c4-41bc-8074-2fcb7215b3d8}, !- Summer Design Day Schedule Name
  {74cbae97-cffb-423a-a405-33709c03cdc1}; !- Winter Design Day Schedule Name

OS:Schedule:Day,
  {c1041fcf-be62-4752-ad54-b31cc15d5380}, !- Handle
  0600|1900|ChildCare|default|air_velocity |default, !- Name
  {098bdc86-896c-4d6c-bb4b-55d15faaddd8}, !- Schedule Type Limits Name
  ,                                       !- Interpolate to Timestep
  24,                                     !- Hour 1
  0,                                      !- Minute 1
  0.200152;                               !- Value Until Time 1

OS:Schedule:Day,
  {f47aa031-59c4-41bc-8074-2fcb7215b3d8}, !- Handle
  0600|1900|ChildCare|default|air_velocity Summer Design Day, !- Name
  {098bdc86-896c-4d6c-bb4b-55d15faaddd8}, !- Schedule Type Limits Name
  ,                                       !- Interpolate to Timestep
  24,                                     !- Hour 1
  0,                                      !- Minute 1
  0.200152;                               !- Value Until Time 1

OS:Schedule:Day,
  {74cbae97-cffb-423a-a405-33709c03cdc1}, !- Handle
  0600|1900|ChildCare|default|air_velocity Winter Design Day, !- Name
  {098bdc86-896c-4d6c-bb4b-55d15faaddd8}, !- Schedule Type Limits Name
  ,                                       !- Interpolate to Timestep
  24,                                     !- Hour 1
  0,                                      !- Minute 1
  0.200152;                               !- Value Until Time 1

OS:Schedule:Ruleset,
  {613f8d69-866e-4ea1-a142-d4ff8cf4b603}, !- Handle
  0600|1900|ChildCare|default|swh_target_temp, !- Name
  {050a54e6-610f-46a2-bf55-f4228891c2ca}, !- Schedule Type Limits Name
  {ad661430-36b6-4f6c-b077-1805479140ad}, !- Default Day Schedule Name
  {2e710158-7898-469e-8e0a-6de37585e46b}, !- Summer Design Day Schedule Name
  {c44eebca-44f9-46ea-aa9e-465cc9370e9b}; !- Winter Design Day Schedule Name

OS:ScheduleTypeLimits,
  {050a54e6-610f-46a2-bf55-f4228891c2ca}, !- Handle
  Temperature Schedule Type Limits,       !- Name
  ,                                       !- Lower Limit Value {BasedOnField A4}
  ,                                       !- Upper Limit Value {BasedOnField A4}
  Continuous,                             !- Numeric Type
  Temperature;                            !- Unit Type

OS:Schedule:Day,
  {ad661430-36b6-4f6c-b077-1805479140ad}, !- Handle
  0600|1900|ChildCare|default|swh_target_temp |default, !- Name
  {050a54e6-610f-46a2-bf55-f4228891c2ca}, !- Schedule Type Limits Name
  ,                                       !- Interpolate to Timestep
  24,                                     !- Hour 1
  0,                                      !- Minute 1
  60.0000000000001;                       !- Value Until Time 1

OS:Schedule:Day,
  {2e710158-7898-469e-8e0a-6de37585e46b}, !- Handle
  0600|1900|ChildCare|default|swh_target_temp Summer Design Day, !- Name
  {050a54e6-610f-46a2-bf55-f4228891c2ca}, !- Schedule Type Limits Name
  ,                                       !- Interpolate to Timestep
  24,                                     !- Hour 1
  0,                                      !- Minute 1
  60.0000000000001;                       !- Value Until Time 1

OS:Schedule:Day,
  {c44eebca-44f9-46ea-aa9e-465cc9370e9b}, !- Handle
  0600|1900|ChildCare|default|swh_target_temp Winter Design Day, !- Name
  {050a54e6-610f-46a2-bf55-f4228891c2ca}, !- Schedule Type Limits Name
  ,                                       !- Interpolate to Timestep
  24,                                     !- Hour 1
  0,                                      !- Minute 1
  60.0000000000001;                       !- Value Until Time 1

OS:Schedule:Ruleset,
  {adcfbc6a-2c03-4a86-b714-50af6f8f8477}, !- Handle
  0600|1900|ChildCare|default|htg_setpoint, !- Name
  {13c74dbf-0051-4b94-86f3-fc8e98b6ef58}, !- Schedule Type Limits Name
  {eb158a29-e151-4920-b757-32058b3a0198}, !- Default Day Schedule Name
  {e2586796-02e3-4cb6-9394-e867828f41d7}, !- Summer Design Day Schedule Name
  {7efb9438-499e-4316-9aea-dd85e8900346}; !- Winter Design Day Schedule Name

OS:ScheduleTypeLimits,
  {13c74dbf-0051-4b94-86f3-fc8e98b6ef58}, !- Handle
  Thermostat Heating Setpoint Schedule Type Limits, !- Name
  0,                                      !- Lower Limit Value {BasedOnField A4}
  100,                                    !- Upper Limit Value {BasedOnField A4}
  Continuous,                             !- Numeric Type
  Temperature;                            !- Unit Type

OS:Schedule:Day,
  {eb158a29-e151-4920-b757-32058b3a0198}, !- Handle
  0600|1900|ChildCare|default|htg_setpoint |default, !- Name
  {13c74dbf-0051-4b94-86f3-fc8e98b6ef58}, !- Schedule Type Limits Name
  ,                                       !- Interpolate to Timestep
  24,                                     !- Hour 1
  0,                                      !- Minute 1
  21.0000000000001;                       !- Value Until Time 1

OS:Schedule:Day,
  {e2586796-02e3-4cb6-9394-e867828f41d7}, !- Handle
  0600|1900|ChildCare|default|htg_setpoint Summer Design Day, !- Name
  {13c74dbf-0051-4b94-86f3-fc8e98b6ef58}, !- Schedule Type Limits Name
  ,                                       !- Interpolate to Timestep
  24,                                     !- Hour 1
  0,                                      !- Minute 1
  21.0000000000001;                       !- Value Until Time 1

OS:Schedule:Day,
  {7efb9438-499e-4316-9aea-dd85e8900346}, !- Handle
  0600|1900|ChildCare|default|htg_setpoint Winter Design Day, !- Name
  {13c74dbf-0051-4b94-86f3-fc8e98b6ef58}, !- Schedule Type Limits Name
  ,                                       !- Interpolate to Timestep
  24,                                     !- Hour 1
  0,                                      !- Minute 1
  21.0000000000001;                       !- Value Until Time 1

OS:Schedule:Ruleset,
  {8ab7336d-4298-4386-b640-e3457295d6f1}, !- Handle
  0600|1900|ChildCare|default|occ,        !- Name
  {55828413-8578-47c1-be8f-c84aff21920d}, !- Schedule Type Limits Name
  {f263dc56-c7de-400f-8817-bc01b5a12ed0}, !- Default Day Schedule Name
  {ea7b44fb-df7c-41e8-adfc-dadb27deee19}, !- Summer Design Day Schedule Name
  {179305ba-873f-4fa3-a971-3239036f2a01}; !- Winter Design Day Schedule Name

OS:ScheduleTypeLimits,
  {55828413-8578-47c1-be8f-c84aff21920d}, !- Handle
  Occupancy Schedule Type Limits,         !- Name
  0,                                      !- Lower Limit Value {BasedOnField A4}
  1,                                      !- Upper Limit Value {BasedOnField A4}
  Continuous,                             !- Numeric Type
  Dimensionless;                          !- Unit Type

OS:Schedule:Day,
  {f263dc56-c7de-400f-8817-bc01b5a12ed0}, !- Handle
  0600|1900|ChildCare|default|occ |default, !- Name
  {55828413-8578-47c1-be8f-c84aff21920d}, !- Schedule Type Limits Name
  ,                                       !- Interpolate to Timestep
  6,                                      !- Hour 1
  0,                                      !- Minute 1
  0,                                      !- Value Until Time 1
  19,                                     !- Hour 2
  0,                                      !- Minute 2
  0.75,                                   !- Value Until Time 2
  22,                                     !- Hour 3
  0,                                      !- Minute 3
  0.15,                                   !- Value Until Time 3
  24,                                     !- Hour 4
  0,                                      !- Minute 4
  0;                                      !- Value Until Time 4

OS:Schedule:Day,
  {ea7b44fb-df7c-41e8-adfc-dadb27deee19}, !- Handle
  0600|1900|ChildCare|default|occ Summer Design Day, !- Name
  {55828413-8578-47c1-be8f-c84aff21920d}, !- Schedule Type Limits Name
  ,                                       !- Interpolate to Timestep
  6,                                      !- Hour 1
  0,                                      !- Minute 1