
OS:Version,
  {927b9069-6edc-4968-bb2d-8be7d6f340a0}, !- Handle
  1.5.5;                                  !- Version Identifier

OS:ClimateZones,
  {135edfab-17e7-40db-a436-27d385a8cd6d}, !- Handle
  ,                                       !- Active Institution
  ,                                       !- Active Year
  ASHRAE,                                 !- Climate Zone Institution Name 1
  ANSI/ASHRAE Standard 169,               !- Climate Zone Document Name 1
  2006,                                   !- Climate Zone Document Year 1
  ,                                       !- Climate Zone Value 1
  CEC,                                    !- Climate Zone Institution Name 2
  California Climate Zone Descriptions,   !- Climate Zone Document Name 2
  1995,                                   !- Climate Zone Document Year 2
  ;                                       !- Climate Zone Value 2

OS:YearDescription,
  {513d8dda-86cb-442a-b01c-1f7f0e0ac70e}; !- Handle

OS:RadianceParameters,
  {270a96f1-3c86-4b75-a667-cdf22790e2c8}, !- Handle
  1,                                      !- Accumulated Rays per Record
  0,                                      !- Direct Threshold
  1,                                      !- Direct Certainty
  1,                                      !- Direct Jitter
  1,                                      !- Direct Pretest
  6,                                      !- Ambient Bounces VMX
  2,                                      !- Ambient Bounces DMX
  4050,                                   !- Ambient Divisions VMX
  512,                                    !- Ambient Divisions DMX
  256,                                    !- Ambient Supersamples
  0.001,                                  !- Limit Weight VMX
  0.001,                                  !- Limit Weight DMX
  500,                                    !- Klems Sampling Density
  146;                                    !- Sky Discretization Resolution

OS:SimulationControl,
  {2c487a4c-bac9-4ac5-b669-1e49d9da7c2b}, !- Handle
  ,                                       !- Do Zone Sizing Calculation
  ,                                       !- Do System Sizing Calculation
  ,                                       !- Do Plant Sizing Calculation
  No,                                     !- Run Simulation for Sizing Periods
  ,                                       !- Run Simulation for Weather File Run Periods
  0.04,                                   !- Loads Convergence Tolerance Value
  ,                                       !- Temperature Convergence Tolerance Value {deltaC}
  ,                                       !- Solar Distribution
  ,                                       !- Maximum Number of Warmup Days
  2;                                      !- Minimum Number of Warmup Days

OS:Sizing:Parameters,
  {dde5af6f-7923-4600-a28a-7556673a0266}, !- Handle
  1.25,                                   !- Heating Sizing Factor
  1.15;                                   !- Cooling Sizing Factor

OS:ProgramControl,
  {05027a99-f2b3-4aeb-afc6-1425fbb4371d}; !- Handle

OS:Timestep,
  {4ebc9f1e-4707-402e-9844-67eb1ffbd522}, !- Handle
  2;                                      !- Number of Timesteps per Hour

OS:OutputControl:ReportingTolerances,
  {65797aa2-06a9-45fe-b69d-bc6e060399d3}; !- Handle

OS:ConvergenceLimits,
  {9fc11aba-8822-4f3d-970c-46391ba4040d}; !- Handle

OS:ShadowCalculation,
  {ca758bea-4416-4626-9bba-3d8795c79bd6}, !- Handle
  7,                                      !- Calculation Frequency
  15000;                                  !- Maximum Figures in Shadow Overlap Calculations

OS:SurfaceConvectionAlgorithm:Inside,
  {aaabfc36-718a-4ab0-b622-f186ebb45230}, !- Handle
  TARP;                                   !- Algorithm

OS:SurfaceConvectionAlgorithm:Outside,
  {9a0a9f6f-4bbd-4b12-a121-9492a1fcd7d6}, !- Handle
  DOE-2;                                  !- Algorithm

OS:HeatBalanceAlgorithm,
  {9d93e563-e1e0-46d7-9e39-d1c8aceb7212}, !- Handle
  ConductionTransferFunction,             !- Algorithm
  200;                                    !- Surface Temperature Upper Limit {F}

OS:ZoneAirHeatBalanceAlgorithm,
  {8520d93e-310f-4696-9bcd-36228bfdd743}, !- Handle
  AnalyticalSolution;                     !- Algorithm

OS:ZoneAirContaminantBalance,
  {eb5fc3ae-fb22-4160-8fcb-3e3b22b000d3}; !- Handle

OS:ZoneCapacitanceMultiplier:ResearchSpecial,
  {4020ce4f-5a7a-4849-8028-8305d7b751b1}, !- Handle
  ,                                       !- Temperature Capacity Multiplier
  ,                                       !- Humidity Capacity Multiplier
  ;                                       !- Carbon Dioxide Capacity Multiplier

OS:RunPeriod,
  {28df894d-6af9-4fb8-8f56-df1753344aa3}, !- Handle
  Run Period 1,                           !- Name
  1,                                      !- Begin Month
  1,                                      !- Begin Day of Month
  12,                                     !- End Month
  31,                                     !- End Day of Month
  ,                                       !- Use Weather File Holidays and Special Days
  ,                                       !- Use Weather File Daylight Saving Period
  ,                                       !- Apply Weekend Holiday Rule
  ,                                       !- Use Weather File Rain Indicators
  ,                                       !- Use Weather File Snow Indicators
  ;                                       !- Number of Times Runperiod to be Repeated

OS:Building,
  {bf305633-c5a1-4881-9edf-ca5e1a8e1274}, !- Handle
  Building 1,                             !- Name
  ,                                       !- Building Sector Type
  ,                                       !- North Axis {deg}
  ,                                       !- Nominal Floor to Floor Height {m}
  ,                                       !- Space Type Name
  ,                                       !- Default Construction Set Name
  {825ddda2-1b76-4fbe-8e0f-5303af28b66d}, !- Default Schedule Set Name
  ,                                       !- Standards Number of Stories
  ,                                       !- Standards Number of Above Ground Stories
  FullServiceRestaurant;                  !- Standards Building Type

OS:LifeCycleCost:Parameters,
  {231cf8a0-f0e7-4251-a99f-11f0d464e661}, !- Handle
  FEMP,                                   !- Analysis Type
  ,                                       !- Discounting Convention
  ,                                       !- Inflation Approach
  ,                                       !- Real Discount Rate
  ,                                       !- Nominal Discount Rate
  ,                                       !- Inflation
  ,                                       !- Base Date Month
  ,                                       !- Base Date Year
  ,                                       !- Service Date Month
  ,                                       !- Service Date Year
  ,                                       !- Length of Study Period in Years
  ,                                       !- Tax Rate
  ,                                       !- Depreciation Method
  Yes;                                    !- Use NIST Fuel Escalation Rates

OS:Facility,
  {3ba8e45b-b833-44eb-a723-ea6c3946dc96}; !- Handle

OS:SpaceType,
  {1d577834-639f-4a12-af7c-257b788f96ac}, !- Handle
  FullServiceRestaurant|Dining|DOE Ref 2004|ASHRAE 169-2006-5A, !- Name
  {0b1241fb-0e76-43e8-8c8a-d3a37e5d191f}, !- Default Construction Set Name
  {e7c91c13-0f75-4e8e-a078-8faa1247f998}, !- Default Schedule Set Name
  {54ae4b4c-fe42-49df-ad90-7d92d8e8ea94}, !- Group Rendering Name
  {761ca24b-77b9-43b8-9d4f-e3b6588b440a}, !- Design Specification Outdoor Air Object Name
  FullServiceRestaurant,                  !- Standards Building Type
  Dining;                                 !- Standards Space Type

OS:Rendering:Color,
  {54ae4b4c-fe42-49df-ad90-7d92d8e8ea94}, !- Handle
  Rendering Color 1,                      !- Name
  31,                                     !- Rendering Red Value
  169,                                    !- Rendering Green Value
  34;                                     !- Rendering Blue Value

OS:SpaceType,
  {bdb2aa4a-6be9-4b7a-8794-0c718a47276b}, !- Handle
  FullServiceRestaurant|Kitchen|DOE Ref 2004|ASHRAE 169-2006-5A, !- Name
  {0b1241fb-0e76-43e8-8c8a-d3a37e5d191f}, !- Default Construction Set Name
  {37b9eef3-33ab-4fb1-8844-ecf1bcc8dd5b}, !- Default Schedule Set Name
  {78384d63-16e0-4827-a2d7-b15ae7c6f1bd}, !- Group Rendering Name
  {cc4463ae-4c3c-4b02-9f42-c4d15834d12e}, !- Design Specification Outdoor Air Object Name
  FullServiceRestaurant,                  !- Standards Building Type
  Kitchen;                                !- Standards Space Type

OS:Rendering:Color,
  {78384d63-16e0-4827-a2d7-b15ae7c6f1bd}, !- Handle
  Rendering Color 2,                      !- Name
  78,                                     !- Rendering Red Value
  222,                                    !- Rendering Green Value
  133;                                    !- Rendering Blue Value

OS:Schedule:Ruleset,
  {4620370a-00fd-4098-b7bd-7ed0f9d2be94}, !- Handle
  0700|2300|FullServiceRestaurant|default|hoo, !- Name
  {77af8c52-3b18-48d3-8bc0-1bdf410d2593}, !- Schedule Type Limits Name
  {c1c2cfaf-fdda-45f7-8d22-8a91086cee7a}, !- Default Day Schedule Name
  {b1b30775-08b5-4327-8738-04d740e10286}, !- Summer Design Day Schedule Name
  {64d873de-3df8-463e-b4dd-074459e9491a}; !- Winter Design Day Schedule Name

OS:Schedule:Day,
  {c1c2cfaf-fdda-45f7-8d22-8a91086cee7a}, !- Handle
  0700|2300|FullServiceRestaurant|default|hoo Schedule Week Day, !- Name
  {77af8c52-3b18-48d3-8bc0-1bdf410d2593}, !- Schedule Type Limits Name
  ,                                       !- Interpolate to Timestep
  7,                                      !- Hour 1
  0,                                      !- Minute 1
  0,                                      !- Value Until Time 1
  23,                                     !- Hour 2
  0,                                      !- Minute 2
  1,                                      !- Value Until Time 2
  24,                                     !- Hour 3
  0,                                      !- Minute 3
  0;                                      !- Value Until Time 3

OS:Schedule:Day,
  {4cdbd69b-4aa0-481c-b33e-c16d25c07df0}, !- Handle
  Schedule Day 2,                         !- Name
  ,                                       !- Schedule Type Limits Name
  ,                                       !- Interpolate to Timestep
  24,                                     !- Hour 1
  0,                                      !- Minute 1
  0;                                      !- Value Until Time 1

OS:Schedule:Day,
  {64d873de-3df8-463e-b4dd-074459e9491a}, !- Handle
  0700|2300|FullServiceRestaurant|default|hoo Winter Design Day, !- Name
  {77af8c52-3b18-48d3-8bc0-1bdf410d2593}, !- Schedule Type Limits Name
  ,                                       !- Interpolate to Timestep
  24,                                     !- Hour 1
  0,                                      !- Minute 1
  0;                                      !- Value Until Time 1

OS:Schedule:Day,
  {890fa27e-c130-48d0-8fbd-19661ddcc44b}, !- Handle
  Schedule Day 3,                         !- Name
  ,                                       !- Schedule Type Limits Name
  ,                                       !- Interpolate to Timestep
  24,                                     !- Hour 1
  0,                                      !- Minute 1
  0;                                      !- Value Until Time 1

OS:Schedule:Day,
  {b1b30775-08b5-4327-8738-04d740e10286}, !- Handle
  0700|2300|FullServiceRestaurant|default|hoo Summer Design Day, !- Name
  {77af8c52-3b18-48d3-8bc0-1bdf410d2593}, !- Schedule Type Limits Name
  ,                                       !- Interpolate to Timestep
  24,                                     !- Hour 1
  0,                                      !- Minute 1
  1;                                      !- Value Until Time 1

OS:DefaultScheduleSet,
  {825ddda2-1b76-4fbe-8e0f-5303af28b66d}, !- Handle
  Building Hours of Operation,            !- Name
  {4620370a-00fd-4098-b7bd-7ed0f9d2be94}, !- Hours of Operation Schedule Name
  ,                                       !- Number of People Schedule Name
  ,                                       !- People Activity Level Schedule Name
  ,                                       !- Lighting Schedule Name
  ,                                       !- Electric Equipment Schedule Name
  ,                                       !- Gas Equipment Schedule Name
  ,                                       !- Hot Water Equipment Schedule Name
  ,                                       !- Infiltration Schedule Name
  ,                                       !- Steam Equipment Schedule Name
  ;                                       !- Other Equipment Schedule Name

OS:ScheduleTypeLimits,
  {77af8c52-3b18-48d3-8bc0-1bdf410d2593}, !- Handle
  OnOff,                                  !- Name
  0,                                      !- Lower Limit Value {BasedOnField A4}
  1,                                      !- Upper Limit Value {BasedOnField A4}
  Discrete,                               !- Numeric Type
  Availability;                           !- Unit Type

OS:Schedule:Ruleset,
  {5a9b0c51-fad7-42e3-916e-8b2db26503c2}, !- Handle
  0700|2300|FullServiceRestaurant|default|air_velocity, !- Name
  {56983542-6b4a-4049-9308-12fd67601495}, !- Schedule Type Limits Name
  {a4a1d39c-f260-4e01-a56a-ad3b0e08177b}, !- Default Day Schedule Name
  {8f63bbc3-1bd7-439b-8c4e-3bf90567d86b}, !- Summer Design Day Schedule Name
  {f2e74459-3441-48bd-aaaf-41fce16ed5b5}; !- Winter Design Day Schedule Name

OS:ScheduleTypeLimits,
  {56983542-6b4a-4049-9308-12fd67601495}, !- Handle
  Dimensionless Schedule Type Limits,     !- Name
  ,                                       !- Lower Limit Value {BasedOnField A4}
  ,                                       !- Upper Limit Value {BasedOnField A4}
  Continuous,                             !- Numeric Type
  Dimensionless;                          !- Unit Type

OS:Schedule:Day,
  {a4a1d39c-f260-4e01-a56a-ad3b0e08177b}, !- Handle
  0700|2300|FullServiceRestaurant|default|air_velocity |default, !- Name
  {56983542-6b4a-4049-9308-12fd67601495}, !- Schedule Type Limits Name
  ,                                       !- Interpolate to Timestep
  24,                                     !- Hour 1
  0,                                      !- Minute 1
  0.200152;                               !- Value Until Time 1

OS:Schedule:Day,
  {8f63bbc3-1bd7-439b-8c4e-3bf90567d86b}, !- Handle
  0700|2300|FullServiceRestaurant|default|air_velocity Summer Design Day, !- Name
  {56983542-6b4a-4049-9308-12fd67601495}, !- Schedule Type Limits Name
  ,                                       !- Interpolate to Timestep
  24,                                     !- Hour 1
  0,                                      !- Minute 1
  0.200152;                               !- Value Until Time 1

OS:Schedule:Day,
  {f2e74459-3441-48bd-aaaf-41fce16ed5b5}, !- Handle
  0700|2300|FullServiceRestaurant|default|air_velocity Winter Design Day, !- Name
  {56983542-6b4a-4049-9308-12fd67601495}, !- Schedule Type Limits Name
  ,                                       !- Interpolate to Timestep
  24,                                     !- Hour 1
  0,                                      !- Minute 1
  0.200152;                               !- Value Until Time 1

OS:Schedule:Ruleset,
  {1c8a3cb9-dff3-4a26-a6d6-09240073bb86}, !- Handle
  0700|2300|FullServiceRestaurant|Kitchen|clg_setpoint, !- Name
  {b0beac26-d2ea-49c5-bf13-0b9f6516f2c6}, !- Schedule Type Limits Name
  {8df55d87-1deb-4f98-9b28-809ec107ffe0}, !- Default Day Schedule Name
  {743d6da1-829e-463a-8213-95f32a4cc7f3}, !- Summer Design Day Schedule Name
  {cafe3b5b-ba26-4c50-be95-47a07cdc7549}; !- Winter Design Day Schedule Name

OS:ScheduleTypeLimits,
  {b0beac26-d2ea-49c5-bf13-0b9f6516f2c6}, !- Handle
  Thermostat Cooling Setpoint Schedule Type Limits, !- Name
  0,                                      !- Lower Limit Value {BasedOnField A4}
  100,                                    !- Upper Limit Value {BasedOnField A4}
  Continuous,                             !- Numeric Type
  Temperature;                            !- Unit Type

OS:Schedule:Day,
  {8df55d87-1deb-4f98-9b28-809ec107ffe0}, !- Handle
  0700|2300|FullServiceRestaurant|Kitchen|clg_setpoint |default, !- Name
  {b0beac26-d2ea-49c5-bf13-0b9f6516f2c6}, !- Schedule Type Limits Name
  ,                                       !- Interpolate to Timestep
  24,                                     !- Hour 1
  0,                                      !- Minute 1
  26.0000000000001;                       !- Value Until Time 1

OS:Schedule:Day,
  {743d6da1-829e-463a-8213-95f32a4cc7f3}, !- Handle
  0700|2300|FullServiceRestaurant|Kitchen|clg_setpoint Summer Design Day, !- Name
  {b0beac26-d2ea-49c5-bf13-0b9f6516f2c6}, !- Schedule Type Limits Name
  ,                                       !- Interpolate to Timestep
  24,                                     !- Hour 1
  0,                                      !- Minute 1
  26.0000000000001;                       !- Value Until Time 1

OS:Schedule:Day,
  {cafe3b5b-ba26-4c50-be95-47a07cdc7549}, !- Handle
  0700|2300|FullServiceRestaurant|Kitchen|clg_setpoint Winter Design Day, !- Name
  {b0beac26-d2ea-49c5-bf13-0b9f6516f2c6}, !- Schedule Type Limits Name
  ,                                       !- Interpolate to Timestep
  24,                                     !- Hour 1
  0,                                      !- Minute 1
  26.0000000000001;                       !- Value Until Time 1

OS:Schedule:Ruleset,
  {407ef220-0741-484b-a6ba-9189d26cdc89}, !- Handle
  0700|2300|FullServiceRestaurant|default|htg_setpoint, !- Name
  {7a3d1636-318f-44a9-88d7-fc9b8895c1eb}, !- Schedule Type Limits Name
  {d5cea1b6-b120-4f28-8bc5-54fe788d97ee}, !- Default Day Schedule Name
  {f091175f-247e-4354-abb1-ba582b45bdba}, !- Summer Design Day Schedule Name
  {23785ea9-479e-412a-b429-b082bb30e88e}; !- Winter Design Day Schedule Name

OS:ScheduleTypeLimits,
  {7a3d1636-318f-44a9-88d7-fc9b8895c1eb}, !- Handle
  Thermostat Heating Setpoint Schedule Type Limits, !- Name
  0,                                      !- Lower Limit Value {BasedOnField A4}
  100,                                    !- Upper Limit Value {BasedOnField A4}
  Continuous,                             !- Numeric Type
  Temperature;                            !- Unit Type

OS:Schedule:Day,
  {d5cea1b6-b120-4f28-8bc5-54fe788d97ee}, !- Handle
  0700|2300|FullServiceRestaurant|default|htg_setpoint |default, !- Name
  {7a3d1636-318f-44a9-88d7-fc9b8895c1eb}, !- Schedule Type Limits Name
  ,                                       !- Interpolate to Timestep
  24,                                     !- Hour 1
  0,                                      !- Minute 1
  21.0000000000001;                       !- Value Until Time 1

OS:Schedule:Day,
  {f091175f-247e-4354-abb1-ba582b45bdba}, !- Handle
  0700|2300|FullServiceRestaurant|default|htg_setpoint Summer Design Day, !- Name
  {7a3d1636-318f-44a9-88d7-fc9b8895c1eb}, !- Schedule Type Limits Name
  ,                                       !- Interpolate to Timestep
  24,                                     !- Hour 1
  0,                                      !- Minute 1
  21.0000000000001;                       !- Value Until Time 1

OS:Schedule:Day,
  {23785ea9-479e-412a-b429-b082bb30e88e}, !- Handle
  0700|2300|FullServiceRestaurant|default|htg_setpoint Winter Design Day, !- Name
  {7a3d1636-318f-44a9-88d7-fc9b8895c1eb}, !- Schedule Type Limits Name
  ,                                       !- Interpolate to Timestep
  24,                                     !- Hour 1
  0,                                      !- Minute 1
  21.0000000000001;                       !- Value Until Time 1

OS:Schedule:Ruleset,
  {f6ee7e41-48b1-431b-8d75-ee339ae6884a}, !- Handle
  0700|2300|FullServiceRestaurant|default|swh_target_temp, !- Name
  {59f29e44-156f-4c5a-bb19-3bffc2a3b779}, !- Schedule Type Limits Name
  {80e23d7a-baf8-4edb-94f7-c82f7b5133d2}, !- Default Day Schedule Name
  {44733152-f1b0-4b39-b3d8-7fc3f6ac8af3}, !- Summer Design Day Schedule Name
  {7ece359d-653f-4003-8913-330e1fd8c036}; !- Winter Design Day Schedule Name

OS:ScheduleTypeLimits,
  {59f29e44-156f-4c5a-bb19-3bffc2a3b779}, !- Handle
  Temperature Schedule Type Limits,       !- Name
  ,                                       !- Lower Limit Value {BasedOnField A4}
  ,                                       !- Upper Limit Value {BasedOnField A4}
  Continuous,                             !- Numeric Type
  Temperature;                            !- Unit Type

OS:Schedule:Day,
  {80e23d7a-baf8-4edb-94f7-c82f7b5133d2}, !- Handle
  0700|2300|FullServiceRestaurant|default|swh_target_temp |default, !- Name
  {59f29e44-156f-4c5a-bb19-3bffc2a3b779}, !- Schedule Type Limits Name
  ,                                       !- Interpolate to Timestep
  24,                                     !- Hour 1
  0,                                      !- Minute 1
  55.0000000000001;                       !- Value Until Time 1

OS:Schedule:Day,
  {44733152-f1b0-4b39-b3d8-7fc3f6ac8af3}, !- Handle
  0700|2300|FullServiceRestaurant|default|swh_target_temp Summer Design Day, !- Name
  {59f29e44-156f-4c5a-bb19-3bffc2a3b779}, !- Schedule Type Limits Name
  ,                                       !- Interpolate to Timestep
  24,                                     !- Hour 1
  0,                                      !- Minute 1
  55.0000000000001;                       !- Value Until Time 1

OS:Schedule:Day,
  {7ece359d-653f-4003-8913-330e1fd8c036}, !- Handle
  0700|2300|FullServiceRestaurant|default|swh_target_temp Winter Design Day, !- Name
  {59f29e44-156f-4c5a-bb19-3bffc2a3b779}, !- Schedule Type Limits Name
  ,                                       !- Interpolate to Timestep
  24,                                     !- Hour 1
  0,                                      !- Minute 1
  55.0000000000001;                       !- Value Until Time 1

OS:Schedule:Ruleset,
  {2292eda1-bd75-453c-9eb8-213fb1a877af}, !- Handle
  0700|2300|FullServiceRestaurant|default|rh, !- Name
  {56983542-6b4a-4049-9308-12fd67601495}, !- Schedule Type Limits Name
  {428984ba-40db-4a8d-9027-87640cb2cb0e}, !- Default Day Schedule Name
  {6e207de2-1d63-4b01-b418-47213357d6e5}, !- Summer Design Day Schedule Name
  {8e8c5d52-b2c3-4fec-b7cf-87435b33b9b1}; !- Winter Design Day Schedule Name

OS:Schedule:Day,
  {428984ba-40db-4a8d-9027-87640cb2cb0e}, !- Handle
  0700|2300|FullServiceRestaurant|default|rh |default, !- Name
  {56983542-6b4a-4049-9308-12fd67601495}, !- Schedule Type Limits Name
  ,                                       !- Interpolate to Timestep
  24,                                     !- Hour 1
  0,                                      !- Minute 1
  50;                                     !- Value Until Time 1

OS:Schedule:Day,
  {6e207de2-1d63-4b01-b418-47213357d6e5}, !- Handle
  0700|2300|FullServiceRestaurant|default|rh Summer Design Day, !- Name
  {56983542-6b4a-4049-9308-12fd67601495}, !- Schedule Type Limits Name
  ,                                       !- Interpolate to Timestep
  24,                                     !- Hour 1
  0,                                      !- Minute 1
  50;                                     !- Value Until Time 1

OS:Schedule:Day,
  {8e8c5d52-b2c3-4fec-b7cf-87435b33b9b1}, !- Handle
  0700|2300|FullServiceRestaurant|default|rh Winter Design Day, !- Name
  {56983542-6b4a-4049-9308-12fd67601495}, !- Schedule Type Limits Name
  ,                                       !- Interpolate to Timestep
  24,                                     !- Hour 1
  0,                                      !- Minute 1
  50;                                     !- Value Until Time 1

OS:Schedule:Ruleset,
  {667f81c2-2a72-44f0-83dc-5cb9cf5e3ce1}, !- Handle
  0700|2300|FullServiceRestaurant|default|hvac, !- Name
  {2329fcde-f240-4761-bbe9-801e73ba7e45}, !- Schedule Type Limits Name
  {21ba75f2-c9de-4aa5-b622-156f3cb0acf9}, !- Default Day Schedule Name
  {727e356d-0473-4a2e-92da-55a02a4f2f36}, !- Summer Design Day Schedule Name
  {ef6c57da-3b68-433f-8816-fa83bd2a6ef8}; !- Winter Design Day Schedule Name

OS:ScheduleTypeLimits,
  {2329fcde-f240-4761-bbe9-801e73ba7e45}, !- Handle
  HVAC Operation Schedule Type Limits,    !- Name
  0,                                      !- Lower Limit Value {BasedOnField A4}
  1,                                      !- Upper Limit Value {BasedOnField A4}
  Discrete,                               !- Numeric Type
  Availability;                           !- Unit Type

OS:Schedule:Day,
  {21ba75f2-c9de-4aa5-b622-156f3cb0acf9}, !- Handle
  0700|2300|FullServiceRestaurant|default|hvac |default, !- Name
  {2329fcde-f240-4761-bbe9-801e73ba7e45}, !- Schedule Type Limits Name
  ,                                       !- Interpolate to Timestep
  1,                                      !- Hour 1
  0,                                      !- Minute 1
  1,                                      !- Value Until Time 1
  5,                                      !- Hour 2
  0,                                      !- Minute 2
  0,                                      !- Value Until Time 2
  24,                                     !- Hour 3
  0,                                      !- Minute 3
  1;                                      !- Value Until Time 3

OS:Schedule:Day,
  {727e356d-0473-4a2e-92da-55a02a4f2f36}, !- Handle
  0700|2300|FullServiceRestaurant|default|hvac Summer Design Day, !- Name
  {2329fcde-f240-4761-bbe9-801e73ba7e45}, !- Schedule Type Limits Name
  ,                                       !- Interpolate to Timestep
  1,                                      !- Hour 1
  0,                                      !- Minute 1
  1,                                      !- Value Until Time 1
  5,                                      !- Hour 2
  0,                                      !- Minute 2
  0,                                      !- Value Until Time 2
  24,                                     !- Hour 3
  0,                                      !- Minute 3
  1;                                      !- Value Until Time 3

OS:Schedule:Day,
  {ef6c57da-3b68-433f-8816-fa83bd2a6ef8}, !- Handle
  0700|2300|FullServiceRestaurant|default|hvac Winter Design Day, !- Name
  {2329fcde-f240-4761-bbe9-801e73ba7e45}, !- Schedule Type Limits Name
  ,                                       !- Interpolate to Timestep
  1,                                      !- Hour 1
  0,                                      !- Minute 1
  1,                                      !- Value Until Time 1
  5,                                      !- Hour 2
  0,                                      !- Minute 2
  0,                                      !- Value Until Time 2
  24,                                     !- Hour 3
  0,                                      !- Minute 3
  1;                                      !- Value Until Time 3

OS:Schedule:Ruleset,
  {cf67906d-e995-40ec-8ac1-aa6c1e60d161}, !- Handle
  0700|2300|FullServiceRestaurant|default|work_eff, !- Name
  {33ea60dd-f83d-4809-a94d-f029b996e42c}, !- Schedule Type Limits Name
  {fe9efd56-6b2b-4434-a0c0-6821dc474bb7}, !- Default Day Schedule Name
  {a4d4cd4f-5aeb-4cb0-8418-9b693f505ac5}, !- Summer Design Day Schedule Name
  {8793655d-8dff-44aa-8a61-bd3f858769a6}; !- Winter Design Day Schedule Name

OS:ScheduleTypeLimits,
  {33ea60dd-f83d-4809-a94d-f029b996e42c}, !- Handle
  Fraction Schedule Type Limits,          !- Name
  0,                                      !- Lower Limit Value {BasedOnField A4}
  1,                                      !- Upper Limit Value {BasedOnField A4}
  Continuous,                             !- Numeric Type
  Dimensionless;                          !- Unit Type

OS:Schedule:Day,
  {fe9efd56-6b2b-4434-a0c0-6821dc474bb7}, !- Handle
  0700|2300|FullServiceRestaurant|default|work_eff |default, !- Name
  {33ea60dd-f83d-4809-a94d-f029b996e42c}, !- Schedule Type Limits Name
  ,                                       !- Interpolate to Timestep
  24,                                     !- Hour 1
  0,                                      !- Minute 1
  0;                                      !- Value Until Time 1

OS:Schedule:Day,
  {a4d4cd4f-5aeb-4cb0-8418-9b693f505ac5}, !- Handle
  0700|2300|FullServiceRestaurant|default|work_eff Summer Design Day, !- Name
  {33ea60dd-f83d-4809-a94d-f029b996e42c}, !- Schedule Type Limits Name
  ,                                       !- Interpolate to Timestep
  24,                                     !- Hour 1
  0,                                      !- Minute 1
  0;                                      !- Value Until Time 1

OS:Schedule:Day,
  {8793655d-8dff-44aa-8a61-bd3f858769a6}, !- Handle
  0700|2300|FullServiceRestaurant|default|work_eff Winter Design Day, !- Name
  {33ea60dd-f83d-4809-a94d-f029b996e42c}, !- Schedule Type Limits Name
  ,                                       !- Interpolate to Timestep
  24,                                     !- Hour 1
  0,                                      !- Minute 1
  0;                                      !- Value Until Time 1

OS:Schedule:Ruleset,
  {79af0209-d95c-4702-b9ee-8bb64f7607b9}, !- Handle
  0700|2300|FullServiceRestaurant|default|lighting, !- Name
  {370db4fc-982c-4fbc-bfc9-7a9f0584841e}, !- Schedule Type Limits Name
  {aa881dd7-1898-43eb-97c8-e9f75cba84b5}, !- Default Day Schedule Name
  {b01eeaca-e6e1-476c-8a50-444e620399e2}, !- Summer Design Day Schedule Name
  {ce34475f-34dd-491d-8429-2ae1e68494c4}; !- Winter Design Day Schedule Name

OS:ScheduleTypeLimits,
  {370db4fc-982c-4fbc-bfc9-7a9f0584841e}, !- Handle