
OS:Version,
  {b7bb6ef6-9405-43ea-8ab8-1b0c7a9fe388}, !- Handle
  1.6.0;                                  !- Version Identifier

OS:ClimateZones,
  {135edfab-17e7-40db-a436-27d385a8cd6d}, !- Handle
  ,                                       !- Active Institution
  ,                                       !- Active Year
  ASHRAE,                                 !- Climate Zone Institution Name 1
  ANSI/ASHRAE Standard 169,               !- Climate Zone Document Name 1
  2006,                                   !- Climate Zone Document Year 1
  ,                                       !- Climate Zone Value 1
  CEC,                                    !- Climate Zone Institution Name 2
  California Climate Zone Descriptions,   !- Climate Zone Document Name 2
  1995,                                   !- Climate Zone Document Year 2
  ;                                       !- Climate Zone Value 2

OS:YearDescription,
  {513d8dda-86cb-442a-b01c-1f7f0e0ac70e}; !- Handle

OS:RadianceParameters,
  {270a96f1-3c86-4b75-a667-cdf22790e2c8}, !- Handle
  1,                                      !- Accumulated Rays per Record
  0,                                      !- Direct Threshold
  1,                                      !- Direct Certainty
  1,                                      !- Direct Jitter
  1,                                      !- Direct Pretest
  6,                                      !- Ambient Bounces VMX
  2,                                      !- Ambient Bounces DMX
  4050,                                   !- Ambient Divisions VMX
  512,                                    !- Ambient Divisions DMX
  256,                                    !- Ambient Supersamples
  0.001,                                  !- Limit Weight VMX
  0.001,                                  !- Limit Weight DMX
  500,                                    !- Klems Sampling Density
  146;                                    !- Sky Discretization Resolution

OS:SimulationControl,
  {2c487a4c-bac9-4ac5-b669-1e49d9da7c2b}, !- Handle
  ,                                       !- Do Zone Sizing Calculation
  ,                                       !- Do System Sizing Calculation
  ,                                       !- Do Plant Sizing Calculation
  No,                                     !- Run Simulation for Sizing Periods
  ,                                       !- Run Simulation for Weather File Run Periods
  0.04,                                   !- Loads Convergence Tolerance Value
  ,                                       !- Temperature Convergence Tolerance Value {deltaC}
  ,                                       !- Solar Distribution
  ,                                       !- Maximum Number of Warmup Days
  2;                                      !- Minimum Number of Warmup Days

OS:Sizing:Parameters,
  {dde5af6f-7923-4600-a28a-7556673a0266}, !- Handle
  1.25,                                   !- Heating Sizing Factor
  1.15;                                   !- Cooling Sizing Factor

OS:ProgramControl,
  {05027a99-f2b3-4aeb-afc6-1425fbb4371d}; !- Handle

OS:Timestep,
  {4ebc9f1e-4707-402e-9844-67eb1ffbd522}, !- Handle
  2;                                      !- Number of Timesteps per Hour

OS:OutputControl:ReportingTolerances,
  {65797aa2-06a9-45fe-b69d-bc6e060399d3}; !- Handle

OS:ConvergenceLimits,
  {9fc11aba-8822-4f3d-970c-46391ba4040d}; !- Handle

OS:ShadowCalculation,
  {ca758bea-4416-4626-9bba-3d8795c79bd6}, !- Handle
  7,                                      !- Calculation Frequency
  15000;                                  !- Maximum Figures in Shadow Overlap Calculations

OS:SurfaceConvectionAlgorithm:Inside,
  {aaabfc36-718a-4ab0-b622-f186ebb45230}, !- Handle
  TARP;                                   !- Algorithm

OS:SurfaceConvectionAlgorithm:Outside,
  {9a0a9f6f-4bbd-4b12-a121-9492a1fcd7d6}, !- Handle
  DOE-2;                                  !- Algorithm

OS:HeatBalanceAlgorithm,
  {9d93e563-e1e0-46d7-9e39-d1c8aceb7212}, !- Handle
  ConductionTransferFunction,             !- Algorithm
  200;                                    !- Surface Temperature Upper Limit {F}

OS:ZoneAirHeatBalanceAlgorithm,
  {8520d93e-310f-4696-9bcd-36228bfdd743}, !- Handle
  AnalyticalSolution;                     !- Algorithm

OS:ZoneAirContaminantBalance,
  {eb5fc3ae-fb22-4160-8fcb-3e3b22b000d3}; !- Handle

OS:ZoneCapacitanceMultiplier:ResearchSpecial,
  {4020ce4f-5a7a-4849-8028-8305d7b751b1}, !- Handle
  ,                                       !- Temperature Capacity Multiplier
  ,                                       !- Humidity Capacity Multiplier
  ;                                       !- Carbon Dioxide Capacity Multiplier

OS:RunPeriod,
  {28df894d-6af9-4fb8-8f56-df1753344aa3}, !- Handle
  Run Period 1,                           !- Name
  1,                                      !- Begin Month
  1,                                      !- Begin Day of Month
  12,                                     !- End Month
  31,                                     !- End Day of Month
  ,                                       !- Use Weather File Holidays and Special Days
  ,                                       !- Use Weather File Daylight Saving Period
  ,                                       !- Apply Weekend Holiday Rule
  ,                                       !- Use Weather File Rain Indicators
  ,                                       !- Use Weather File Snow Indicators
  ;                                       !- Number of Times Runperiod to be Repeated

OS:Building,
  {bf305633-c5a1-4881-9edf-ca5e1a8e1274}, !- Handle
  Building 1,                             !- Name
  ,                                       !- Building Sector Type
  ,                                       !- North Axis {deg}
  ,                                       !- Nominal Floor to Floor Height {m}
  ,                                       !- Space Type Name
  ,                                       !- Default Construction Set Name
  {0fc0d358-64bc-4205-9f36-b50eb2e8ef39}, !- Default Schedule Set Name
  ,                                       !- Standards Number of Stories
  ,                                       !- Standards Number of Above Ground Stories
  FullServiceRestaurant;                  !- Standards Building Type

OS:LifeCycleCost:Parameters,
  {231cf8a0-f0e7-4251-a99f-11f0d464e661}, !- Handle
  FEMP,                                   !- Analysis Type
  ,                                       !- Discounting Convention
  ,                                       !- Inflation Approach
  ,                                       !- Real Discount Rate
  ,                                       !- Nominal Discount Rate
  ,                                       !- Inflation
  ,                                       !- Base Date Month
  ,                                       !- Base Date Year
  ,                                       !- Service Date Month
  ,                                       !- Service Date Year
  ,                                       !- Length of Study Period in Years
  ,                                       !- Tax Rate
  ,                                       !- Depreciation Method
  Yes;                                    !- Use NIST Fuel Escalation Rates

OS:Facility,
  {3ba8e45b-b833-44eb-a723-ea6c3946dc96}; !- Handle

OS:SpaceType,
  {e59823d9-06d4-46bb-b9ad-66aa2d3e6d1b}, !- Handle
  FullServiceRestaurant|Dining|DOE Ref Pre-1980|ASHRAE 169-2006-5A, !- Name
  {5b70299c-cc0b-4234-b25b-eff86cccd405}, !- Default Construction Set Name
  {5df656da-de9c-4d26-870f-dc75798eab92}, !- Default Schedule Set Name
  {36f42acb-57e0-4723-816e-4cfa33358540}, !- Group Rendering Name
  {19a4deb3-d8b1-41b6-9209-4154a1d5199e}, !- Design Specification Outdoor Air Object Name
  FullServiceRestaurant,                  !- Standards Building Type
  Dining;                                 !- Standards Space Type

OS:Rendering:Color,
  {36f42acb-57e0-4723-816e-4cfa33358540}, !- Handle
  Rendering Color 1,                      !- Name
  31,                                     !- Rendering Red Value
  169,                                    !- Rendering Green Value
  34;                                     !- Rendering Blue Value

OS:SpaceType,
  {3f2a6a71-87b3-4e18-8326-35e644b6f3d6}, !- Handle
  FullServiceRestaurant|Kitchen|DOE Ref Pre-1980|ASHRAE 169-2006-5A, !- Name
  {5b70299c-cc0b-4234-b25b-eff86cccd405}, !- Default Construction Set Name
  {9f7e0439-00fa-4b0f-ac89-fffbb7d504f9}, !- Default Schedule Set Name
  {6d73f1e6-f304-4972-b08e-33bb7b37a650}, !- Group Rendering Name
  {d5ec7ef5-bc32-4ffc-89d2-22ae41f829f1}, !- Design Specification Outdoor Air Object Name
  FullServiceRestaurant,                  !- Standards Building Type
  Kitchen;                                !- Standards Space Type

OS:Rendering:Color,
  {6d73f1e6-f304-4972-b08e-33bb7b37a650}, !- Handle
  Rendering Color 2,                      !- Name
  78,                                     !- Rendering Red Value
  222,                                    !- Rendering Green Value
  133;                                    !- Rendering Blue Value

OS:Schedule:Ruleset,
  {41abb2f3-e55d-445e-b3bc-b28b1292ed11}, !- Handle
  0700|2300|FullServiceRestaurant|default|hoo, !- Name
  {88f8fcfb-447d-450a-b8b3-0644093c3ed5}, !- Schedule Type Limits Name
  {a7d4ae1b-2659-4839-9c16-dda8a965e156}, !- Default Day Schedule Name
  {869efbb8-7840-4287-88e1-29b7b1bdf15b}, !- Summer Design Day Schedule Name
  {1d3ca775-6fc9-4b20-8ea9-1e4d7a1c382d}; !- Winter Design Day Schedule Name

OS:Schedule:Day,
  {a7d4ae1b-2659-4839-9c16-dda8a965e156}, !- Handle
  0700|2300|FullServiceRestaurant|default|hoo Schedule Week Day, !- Name
  {88f8fcfb-447d-450a-b8b3-0644093c3ed5}, !- Schedule Type Limits Name
  ,                                       !- Interpolate to Timestep
  7,                                      !- Hour 1
  0,                                      !- Minute 1
  0,                                      !- Value Until Time 1
  23,                                     !- Hour 2
  0,                                      !- Minute 2
  1,                                      !- Value Until Time 2
  24,                                     !- Hour 3
  0,                                      !- Minute 3
  0;                                      !- Value Until Time 3

OS:Schedule:Day,
  {672cfa54-494e-4fd4-b54c-e208c7424dcd}, !- Handle
  Schedule Day 2,                         !- Name
  ,                                       !- Schedule Type Limits Name
  ,                                       !- Interpolate to Timestep
  24,                                     !- Hour 1
  0,                                      !- Minute 1
  0;                                      !- Value Until Time 1

OS:Schedule:Day,
  {1d3ca775-6fc9-4b20-8ea9-1e4d7a1c382d}, !- Handle
  0700|2300|FullServiceRestaurant|default|hoo Winter Design Day, !- Name
  {88f8fcfb-447d-450a-b8b3-0644093c3ed5}, !- Schedule Type Limits Name
  ,                                       !- Interpolate to Timestep
  24,                                     !- Hour 1
  0,                                      !- Minute 1
  0;                                      !- Value Until Time 1

OS:Schedule:Day,
  {82d733ed-a62f-4087-ba11-2d1b371a9a4b}, !- Handle
  Schedule Day 3,                         !- Name
  ,                                       !- Schedule Type Limits Name
  ,                                       !- Interpolate to Timestep
  24,                                     !- Hour 1
  0,                                      !- Minute 1
  0;                                      !- Value Until Time 1

OS:Schedule:Day,
  {869efbb8-7840-4287-88e1-29b7b1bdf15b}, !- Handle
  0700|2300|FullServiceRestaurant|default|hoo Summer Design Day, !- Name
  {88f8fcfb-447d-450a-b8b3-0644093c3ed5}, !- Schedule Type Limits Name
  ,                                       !- Interpolate to Timestep
  24,                                     !- Hour 1
  0,                                      !- Minute 1
  1;                                      !- Value Until Time 1

OS:DefaultScheduleSet,
  {0fc0d358-64bc-4205-9f36-b50eb2e8ef39}, !- Handle
  Building Hours of Operation,            !- Name
  {41abb2f3-e55d-445e-b3bc-b28b1292ed11}, !- Hours of Operation Schedule Name
  ,                                       !- Number of People Schedule Name
  ,                                       !- People Activity Level Schedule Name
  ,                                       !- Lighting Schedule Name
  ,                                       !- Electric Equipment Schedule Name
  ,                                       !- Gas Equipment Schedule Name
  ,                                       !- Hot Water Equipment Schedule Name
  ,                                       !- Infiltration Schedule Name
  ,                                       !- Steam Equipment Schedule Name
  ;                                       !- Other Equipment Schedule Name

OS:ScheduleTypeLimits,
  {88f8fcfb-447d-450a-b8b3-0644093c3ed5}, !- Handle
  OnOff,                                  !- Name
  0,                                      !- Lower Limit Value {BasedOnField A4}
  1,                                      !- Upper Limit Value {BasedOnField A4}
  Discrete,                               !- Numeric Type
  Availability;                           !- Unit Type

OS:Schedule:Ruleset,
  {ccf797aa-3441-43e5-a53a-39a3dfcf92ae}, !- Handle
  0700|2300|FullServiceRestaurant|default|activity, !- Name
  {99e8de74-d5e0-4080-8f8f-ae9a7be0be48}, !- Schedule Type Limits Name
  {ef5e7f85-c2fb-466f-b6fd-253d3733c35c}, !- Default Day Schedule Name
  {53aa3e7c-4aa2-422e-9cb2-bd4141765705}, !- Summer Design Day Schedule Name
  {197d4c14-4378-4ed6-8ec9-e1c05fe2007d}; !- Winter Design Day Schedule Name

OS:ScheduleTypeLimits,
  {99e8de74-d5e0-4080-8f8f-ae9a7be0be48}, !- Handle
  People Activity Type Limits,            !- Name
  0,                                      !- Lower Limit Value {BasedOnField A4}
  ,                                       !- Upper Limit Value {BasedOnField A4}
  Continuous,                             !- Numeric Type
  ActivityLevel;                          !- Unit Type

OS:Schedule:Day,
  {ef5e7f85-c2fb-466f-b6fd-253d3733c35c}, !- Handle
  0700|2300|FullServiceRestaurant|default|activity |default, !- Name
  {99e8de74-d5e0-4080-8f8f-ae9a7be0be48}, !- Schedule Type Limits Name
  ,                                       !- Interpolate to Timestep
  24,                                     !- Hour 1
  0,                                      !- Minute 1
  120;                                    !- Value Until Time 1

OS:Schedule:Day,
  {53aa3e7c-4aa2-422e-9cb2-bd4141765705}, !- Handle
  0700|2300|FullServiceRestaurant|default|activity Summer Design Day, !- Name
  {99e8de74-d5e0-4080-8f8f-ae9a7be0be48}, !- Schedule Type Limits Name
  ,                                       !- Interpolate to Timestep
  24,                                     !- Hour 1
  0,                                      !- Minute 1
  120;                                    !- Value Until Time 1

OS:Schedule:Day,
  {197d4c14-4378-4ed6-8ec9-e1c05fe2007d}, !- Handle
  0700|2300|FullServiceRestaurant|default|activity Winter Design Day, !- Name
  {99e8de74-d5e0-4080-8f8f-ae9a7be0be48}, !- Schedule Type Limits Name
  ,                                       !- Interpolate to Timestep
  24,                                     !- Hour 1
  0,                                      !- Minute 1
  120;                                    !- Value Until Time 1

OS:Schedule:Ruleset,
  {4b674a7e-e3ba-4a56-8163-f635ad7efd84}, !- Handle
  0700|2300|FullServiceRestaurant|Kitchen|htg_setpoint, !- Name
  {0e41ca1b-2abf-407f-ad41-278b11bd2c5c}, !- Schedule Type Limits Name
  {4255a04b-afd4-45f4-987c-1d4e704a4921}, !- Default Day Schedule Name
  {e3e8799d-137f-4283-96df-c49f27bacef0}, !- Summer Design Day Schedule Name
  {d63284e6-d5ae-4e8a-8123-c736b3bb2f7c}; !- Winter Design Day Schedule Name

OS:ScheduleTypeLimits,
  {0e41ca1b-2abf-407f-ad41-278b11bd2c5c}, !- Handle
  Thermostat Heating Setpoint Schedule Type Limits, !- Name
  0,                                      !- Lower Limit Value {BasedOnField A4}
  100,                                    !- Upper Limit Value {BasedOnField A4}
  Continuous,                             !- Numeric Type
  Temperature;                            !- Unit Type

OS:Schedule:Day,
  {4255a04b-afd4-45f4-987c-1d4e704a4921}, !- Handle
  0700|2300|FullServiceRestaurant|Kitchen|htg_setpoint |default, !- Name
  {0e41ca1b-2abf-407f-ad41-278b11bd2c5c}, !- Schedule Type Limits Name
  ,                                       !- Interpolate to Timestep
  24,                                     !- Hour 1
  0,                                      !- Minute 1
  19.0000000000001;                       !- Value Until Time 1

OS:Schedule:Day,
  {e3e8799d-137f-4283-96df-c49f27bacef0}, !- Handle
  0700|2300|FullServiceRestaurant|Kitchen|htg_setpoint Summer Design Day, !- Name
  {0e41ca1b-2abf-407f-ad41-278b11bd2c5c}, !- Schedule Type Limits Name
  ,                                       !- Interpolate to Timestep
  24,                                     !- Hour 1
  0,                                      !- Minute 1
  19.0000000000001;                       !- Value Until Time 1

OS:Schedule:Day,
  {d63284e6-d5ae-4e8a-8123-c736b3bb2f7c}, !- Handle
  0700|2300|FullServiceRestaurant|Kitchen|htg_setpoint Winter Design Day, !- Name
  {0e41ca1b-2abf-407f-ad41-278b11bd2c5c}, !- Schedule Type Limits Name
  ,                                       !- Interpolate to Timestep
  24,                                     !- Hour 1
  0,                                      !- Minute 1
  19.0000000000001;                       !- Value Until Time 1

OS:Schedule:Ruleset,
  {10ff948a-88cc-4aef-a13a-98b61eb289cb}, !- Handle
  0700|2300|FullServiceRestaurant|Kitchen|clg_setpoint, !- Name
  {ff1e1c75-2611-46e6-9296-0b141f212354}, !- Schedule Type Limits Name
  {172c42d5-5be0-4bca-88a0-64b2b5e17252}, !- Default Day Schedule Name
  {541dfb77-1882-463e-82f3-0117268a282c}, !- Summer Design Day Schedule Name
  {25b7de7d-6e5a-4d8a-928e-355ca2ec0644}; !- Winter Design Day Schedule Name

OS:ScheduleTypeLimits,
  {ff1e1c75-2611-46e6-9296-0b141f212354}, !- Handle
  Thermostat Cooling Setpoint Schedule Type Limits, !- Name
  0,                                      !- Lower Limit Value {BasedOnField A4}
  100,                                    !- Upper Limit Value {BasedOnField A4}
  Continuous,                             !- Numeric Type
  Temperature;                            !- Unit Type

OS:Schedule:Day,
  {172c42d5-5be0-4bca-88a0-64b2b5e17252}, !- Handle
  0700|2300|FullServiceRestaurant|Kitchen|clg_setpoint |default, !- Name
  {ff1e1c75-2611-46e6-9296-0b141f212354}, !- Schedule Type Limits Name
  ,                                       !- Interpolate to Timestep
  24,                                     !- Hour 1
  0,                                      !- Minute 1
  26.0000000000001;                       !- Value Until Time 1

OS:Schedule:Day,
  {541dfb77-1882-463e-82f3-0117268a282c}, !- Handle
  0700|2300|FullServiceRestaurant|Kitchen|clg_setpoint Summer Design Day, !- Name
  {ff1e1c75-2611-46e6-9296-0b141f212354}, !- Schedule Type Limits Name
  ,                                       !- Interpolate to Timestep
  24,                                     !- Hour 1
  0,                                      !- Minute 1
  26.0000000000001;                       !- Value Until Time 1

OS:Schedule:Day,
  {25b7de7d-6e5a-4d8a-928e-355ca2ec0644}, !- Handle
  0700|2300|FullServiceRestaurant|Kitchen|clg_setpoint Winter Design Day, !- Name
  {ff1e1c75-2611-46e6-9296-0b141f212354}, !- Schedule Type Limits Name
  ,                                       !- Interpolate to Timestep
  24,                                     !- Hour 1
  0,                                      !- Minute 1
  26.0000000000001;                       !- Value Until Time 1

OS:Schedule:Ruleset,
  {81b116cb-5bbf-4d57-85a2-fade250f3235}, !- Handle
  0700|2300|FullServiceRestaurant|default|occ, !- Name
  {ca2af142-7d98-444f-ab14-4c7eb0e12742}, !- Schedule Type Limits Name
  {c1079923-d4e0-4649-b008-8a71a3eab2f4}, !- Default Day Schedule Name
  {7182a3ad-37fd-48ac-9fd6-9a951458ca43}, !- Summer Design Day Schedule Name
  {7a323ec0-c0de-4ca6-86b9-9560eece5d09}; !- Winter Design Day Schedule Name

OS:ScheduleTypeLimits,
  {ca2af142-7d98-444f-ab14-4c7eb0e12742}, !- Handle
  Occupancy Schedule Type Limits,         !- Name
  0,                                      !- Lower Limit Value {BasedOnField A4}
  1,                                      !- Upper Limit Value {BasedOnField A4}
  Continuous,                             !- Numeric Type
  Dimensionless;                          !- Unit Type

OS:Schedule:Day,
  {c1079923-d4e0-4649-b008-8a71a3eab2f4}, !- Handle
  0700|2300|FullServiceRestaurant|default|occ |default, !- Name
  {ca2af142-7d98-444f-ab14-4c7eb0e12742}, !- Schedule Type Limits Name
  ,                                       !- Interpolate to Timestep
  1,                                      !- Hour 1
  0,                                      !- Minute 1
  0.05,                                   !- Value Until Time 1
  5,                                      !- Hour 2
  0,                                      !- Minute 2
  0,                                      !- Value Until Time 2
  6,                                      !- Hour 3
  0,                                      !- Minute 3
  0.05,                                   !- Value Until Time 3
  7,                                      !- Hour 4
  0,                                      !- Minute 4
  0.1,                                    !- Value Until Time 4
  10,                                     !- Hour 5
  0,                                      !- Minute 5
  0.4,                                    !- Value Until Time 5
  11,                                     !- Hour 6
  0,                                      !- Minute 6
  0.2,                                    !- Value Until Time 6
  12,                                     !- Hour 7
  0,                                      !- Minute 7
  0.5,                                    !- Value Until Time 7
  13,                                     !- Hour 8
  0,                                      !- Minute 8
  0.8,                                    !- Value Until Time 8
  14,                                     !- Hour 9
  0,                                      !- Minute 9
  0.7,                                    !- Value Until Time 9
  15,                                     !- Hour 10
  0,                                      !- Minute 10
  0.4,                                    !- Value Until Time 10
  16,                                     !- Hour 11
  0,                                      !- Minute 11
  0.2,                                    !- Value Until Time 11
  17,                                     !- Hour 12
  0,                                      !- Minute 12
  0.25,                                   !- Value Until Time 12
  18,                                     !- Hour 13
  0,                                      !- Minute 13
  0.5,                                    !- Value Until Time 13
  21,                                     !- Hour 14
  0,                                      !- Minute 14
  0.8,                                    !- Value Until Time 14
  22,                                     !- Hour 15
  0,                                      !- Minute 15
  0.5,                                    !- Value Until Time 15
  23,                                     !- Hour 16
  0,                                      !- Minute 16
  0.35,                                   !- Value Until Time 16
  24,                                     !- Hour 17
  0,                                      !- Minute 17
  0.2;                                    !- Value Until Time 17

OS:Schedule:Day,
  {7182a3ad-37fd-48ac-9fd6-9a951458ca43}, !- Handle
  0700|2300|FullServiceRestaurant|default|occ Summer Design Day, !- Name
  {ca2af142-7d98-444f-ab14-4c7eb0e12742}, !- Schedule Type Limits Name
  ,                                       !- Interpolate to Timestep
  1,                                      !- Hour 1
  0,                                      !- Minute 1
  0.05,                                   !- Value Until Time 1
  5,                                      !- Hour 2
  0,                                      !- Minute 2
  0,                                      !- Value Until Time 2
  6,                                      !- Hour 3
  0,                                      !- Minute 3
  0.05,                                   !- Value Until Time 3
  7,                                      !- Hour 4
  0,                                      !- Minute 4
  0.1,                                    !- Value Until Time 4
  10,                                     !- Hour 5
  0,                                      !- Minute 5
  1,                                      !- Value Until Time 5
  11,                                     !- Hour 6
  0,                                      !- Minute 6
  0.2,                                    !- Value Until Time 6
  15,                                     !- Hour 7
  0,                                      !- Minute 7
  1,                                      !- Value Until Time 7
  16,                                     !- Hour 8
  0,                                      !- Minute 8
  0.2,                                    !- Value Until Time 8
  17,                                     !- Hour 9
  0,                                      !- Minute 9
  0.25,                                   !- Value Until Time 9
  23,                                     !- Hour 10
  0,                                      !- Minute 10
  1,                                      !- Value Until Time 10
  24,                                     !- Hour 11
  0,                                      !- Minute 11
  0.2;                                    !- Value Until Time 11

OS:Schedule:Day,
  {7a323ec0-c0de-4ca6-86b9-9560eece5d09}, !- Handle
  0700|2300|FullServiceRestaurant|default|occ Winter Design Day, !- Name
  {ca2af142-7d98-444f-ab14-4c7eb0e12742}, !- Schedule Type Limits Name
  ,                                       !- Interpolate to Timestep
  24,                                     !- Hour 1
  0,                                      !- Minute 1
  0;                                      !- Value Until Time 1

OS:Schedule:Rule,
  {f5ac1191-6c0d-4409-b021-b41d1319c758}, !- Handle
  0700|2300|FullServiceRestaurant|default|occ |1/1-12/31|Sat Rule, !- Name
  {81b116cb-5bbf-4d57-85a2-fade250f3235}, !- Schedule Ruleset Name
  0,                                      !- Rule Order
  {c238c49c-5948-4952-8133-b5b8e5077e33}, !- Day Schedule Name
  ,                                       !- Apply Sunday
  ,                                       !- Apply Monday
  ,                                       !- Apply Tuesday
  ,                                       !- Apply Wednesday
  ,                                       !- Apply Thursday
  ,                                       !- Apply Friday
  Yes,                                    !- Apply Saturday
  ,                                       !- Apply Holiday
  DateRange,                              !- Date Specification Type
  1,                                      !- Start Month
  1,                                      !- Start Day
  12,                                     !- End Month
  31;                                     !- End Day

OS:Schedule:Day,
  {c238c49c-5948-4952-8133-b5b8e5077e33}, !- Handle
  0700|2300|FullServiceRestaurant|default|occ |1/1-12/31|Sat, !- Name
  {ca2af142-7d98-444f-ab14-4c7eb0e12742}, !- Schedule Type Limits Name
  ,                                       !- Interpolate to Timestep
  1,                                      !- Hour 1
  0,                                      !- Minute 1
  0.05,                                   !- Value Until Time 1
  6,                                      !- Hour 2
  0,                                      !- Minute 2
  0,                                      !- Value Until Time 2
  7,                                      !- Hour 3
  0,                                      !- Minute 3
  0.05,                                   !- Value Until Time 3
  9,                                      !- Hour 4
  0,                                      !- Minute 4
  0.5,                                    !- Value Until Time 4
  10,                                     !- Hour 5
  0,                                      !- Minute 5
  0.4,                                    !- Value Until Time 5
  11,                                     !- Hour 6
  0,                                      !- Minute 6
  0.2,                                    !- Value Until Time 6
  12,                                     !- Hour 7
  0,                                      !- Minute 7
  0.45,                                   !- Value Until Time 7
  14,                                     !- Hour 8
  0,                                      !- Minute 8
  0.5,                                    !- Value Until Time 8
  15,                                     !- Hour 9
  0,                                      !- Minute 9
  0.35,                                   !- Value Until Time 9
  18,                                     !- Hour 10
  0,                                      !- Minute 10
  0.3,                                    !- Value Until Time 10
  19,                                     !- Hour 11
  0,                                      !- Minute 11
  0.7,                                    !- Value Until Time 11
  20,                                     !- Hour 12