
OS:Version,
  {e1ba6489-bb25-479d-b990-6dcafee29cee}, !- Handle
  1.5.5;                                  !- Version Identifier

OS:ClimateZones,
  {135edfab-17e7-40db-a436-27d385a8cd6d}, !- Handle
  ,                                       !- Active Institution
  ,                                       !- Active Year
  ASHRAE,                                 !- Climate Zone Institution Name 1
  ANSI/ASHRAE Standard 169,               !- Climate Zone Document Name 1
  2006,                                   !- Climate Zone Document Year 1
  ,                                       !- Climate Zone Value 1
  CEC,                                    !- Climate Zone Institution Name 2
  California Climate Zone Descriptions,   !- Climate Zone Document Name 2
  1995,                                   !- Climate Zone Document Year 2
  ;                                       !- Climate Zone Value 2

OS:YearDescription,
  {513d8dda-86cb-442a-b01c-1f7f0e0ac70e}; !- Handle

OS:RadianceParameters,
  {270a96f1-3c86-4b75-a667-cdf22790e2c8}, !- Handle
  1,                                      !- Accumulated Rays per Record
  0,                                      !- Direct Threshold
  1,                                      !- Direct Certainty
  1,                                      !- Direct Jitter
  1,                                      !- Direct Pretest
  6,                                      !- Ambient Bounces VMX
  2,                                      !- Ambient Bounces DMX
  4050,                                   !- Ambient Divisions VMX
  512,                                    !- Ambient Divisions DMX
  256,                                    !- Ambient Supersamples
  0.001,                                  !- Limit Weight VMX
  0.001,                                  !- Limit Weight DMX
  500,                                    !- Klems Sampling Density
  146;                                    !- Sky Discretization Resolution

OS:SimulationControl,
  {2c487a4c-bac9-4ac5-b669-1e49d9da7c2b}, !- Handle
  ,                                       !- Do Zone Sizing Calculation
  ,                                       !- Do System Sizing Calculation
  ,                                       !- Do Plant Sizing Calculation
  No,                                     !- Run Simulation for Sizing Periods
  ,                                       !- Run Simulation for Weather File Run Periods
  0.04,                                   !- Loads Convergence Tolerance Value
  ,                                       !- Temperature Convergence Tolerance Value {deltaC}
  ,                                       !- Solar Distribution
  ,                                       !- Maximum Number of Warmup Days
  2;                                      !- Minimum Number of Warmup Days

OS:Sizing:Parameters,
  {dde5af6f-7923-4600-a28a-7556673a0266}, !- Handle
  1.25,                                   !- Heating Sizing Factor
  1.15;                                   !- Cooling Sizing Factor

OS:ProgramControl,
  {05027a99-f2b3-4aeb-afc6-1425fbb4371d}; !- Handle

OS:Timestep,
  {4ebc9f1e-4707-402e-9844-67eb1ffbd522}, !- Handle
  2;                                      !- Number of Timesteps per Hour

OS:OutputControl:ReportingTolerances,
  {65797aa2-06a9-45fe-b69d-bc6e060399d3}; !- Handle

OS:ConvergenceLimits,
  {9fc11aba-8822-4f3d-970c-46391ba4040d}; !- Handle

OS:ShadowCalculation,
  {ca758bea-4416-4626-9bba-3d8795c79bd6}, !- Handle
  7,                                      !- Calculation Frequency
  15000;                                  !- Maximum Figures in Shadow Overlap Calculations

OS:SurfaceConvectionAlgorithm:Inside,
  {aaabfc36-718a-4ab0-b622-f186ebb45230}, !- Handle
  TARP;                                   !- Algorithm

OS:SurfaceConvectionAlgorithm:Outside,
  {9a0a9f6f-4bbd-4b12-a121-9492a1fcd7d6}, !- Handle
  DOE-2;                                  !- Algorithm

OS:HeatBalanceAlgorithm,
  {9d93e563-e1e0-46d7-9e39-d1c8aceb7212}, !- Handle
  ConductionTransferFunction,             !- Algorithm
  200;                                    !- Surface Temperature Upper Limit {F}

OS:ZoneAirHeatBalanceAlgorithm,
  {8520d93e-310f-4696-9bcd-36228bfdd743}, !- Handle
  AnalyticalSolution;                     !- Algorithm

OS:ZoneAirContaminantBalance,
  {eb5fc3ae-fb22-4160-8fcb-3e3b22b000d3}; !- Handle

OS:ZoneCapacitanceMultiplier:ResearchSpecial,
  {4020ce4f-5a7a-4849-8028-8305d7b751b1}, !- Handle
  ,                                       !- Temperature Capacity Multiplier
  ,                                       !- Humidity Capacity Multiplier
  ;                                       !- Carbon Dioxide Capacity Multiplier

OS:RunPeriod,
  {28df894d-6af9-4fb8-8f56-df1753344aa3}, !- Handle
  Run Period 1,                           !- Name
  1,                                      !- Begin Month
  1,                                      !- Begin Day of Month
  12,                                     !- End Month
  31,                                     !- End Day of Month
  ,                                       !- Use Weather File Holidays and Special Days
  ,                                       !- Use Weather File Daylight Saving Period
  ,                                       !- Apply Weekend Holiday Rule
  ,                                       !- Use Weather File Rain Indicators
  ,                                       !- Use Weather File Snow Indicators
  ;                                       !- Number of Times Runperiod to be Repeated

OS:Building,
  {bf305633-c5a1-4881-9edf-ca5e1a8e1274}, !- Handle
  Building 1,                             !- Name
  ,                                       !- Building Sector Type
  ,                                       !- North Axis {deg}
  ,                                       !- Nominal Floor to Floor Height {m}
  ,                                       !- Space Type Name
  ,                                       !- Default Construction Set Name
  {64b5e943-036d-4d9e-8d10-d276375a8abc}, !- Default Schedule Set Name
  ,                                       !- Standards Number of Stories
  ,                                       !- Standards Number of Above Ground Stories
  FullServiceRestaurant;                  !- Standards Building Type

OS:LifeCycleCost:Parameters,
  {231cf8a0-f0e7-4251-a99f-11f0d464e661}, !- Handle
  FEMP,                                   !- Analysis Type
  ,                                       !- Discounting Convention
  ,                                       !- Inflation Approach
  ,                                       !- Real Discount Rate
  ,                                       !- Nominal Discount Rate
  ,                                       !- Inflation
  ,                                       !- Base Date Month
  ,                                       !- Base Date Year
  ,                                       !- Service Date Month
  ,                                       !- Service Date Year
  ,                                       !- Length of Study Period in Years
  ,                                       !- Tax Rate
  ,                                       !- Depreciation Method
  Yes;                                    !- Use NIST Fuel Escalation Rates

OS:Facility,
  {3ba8e45b-b833-44eb-a723-ea6c3946dc96}; !- Handle

OS:SpaceType,
  {66ce7f0f-2fcd-4b7d-80ab-e07078aeea91}, !- Handle
  FullServiceRestaurant|Dining|DOE Ref 1980-2004|ASHRAE 169-2006-5A, !- Name
  {18fc1b38-992e-45c4-bd96-78be8fe6a1d6}, !- Default Construction Set Name
  {6a4e4cb7-f119-4cc1-81e1-c044f6d83761}, !- Default Schedule Set Name
  {7da1f784-fd76-4ba1-9081-fca5f5d65e1f}, !- Group Rendering Name
  {973ac456-43d0-404e-8256-3777a89d9ac2}, !- Design Specification Outdoor Air Object Name
  FullServiceRestaurant,                  !- Standards Building Type
  Dining;                                 !- Standards Space Type

OS:Rendering:Color,
  {7da1f784-fd76-4ba1-9081-fca5f5d65e1f}, !- Handle
  Rendering Color 1,                      !- Name
  31,                                     !- Rendering Red Value
  169,                                    !- Rendering Green Value
  34;                                     !- Rendering Blue Value

OS:SpaceType,
  {086bbd04-a045-4c07-9fdf-51003cd9ec48}, !- Handle
  FullServiceRestaurant|Kitchen|DOE Ref 1980-2004|ASHRAE 169-2006-5A, !- Name
  {18fc1b38-992e-45c4-bd96-78be8fe6a1d6}, !- Default Construction Set Name
  {63e83fa0-db77-4e1c-9e2a-2b3a4b3df232}, !- Default Schedule Set Name
  {205bd280-b3ee-4834-9d67-a0cdabe2d7b2}, !- Group Rendering Name
  {4ea774f5-2b22-4eb3-bcd6-8246bbe602d2}, !- Design Specification Outdoor Air Object Name
  FullServiceRestaurant,                  !- Standards Building Type
  Kitchen;                                !- Standards Space Type

OS:Rendering:Color,
  {205bd280-b3ee-4834-9d67-a0cdabe2d7b2}, !- Handle
  Rendering Color 2,                      !- Name
  78,                                     !- Rendering Red Value
  222,                                    !- Rendering Green Value
  133;                                    !- Rendering Blue Value

OS:Schedule:Ruleset,
  {dd2db91b-2f7a-4a1c-9ce1-5c304319f4db}, !- Handle
  0700|2300|FullServiceRestaurant|default|hoo, !- Name
  {8c4dd880-40e2-49c7-ad88-e6be51f45197}, !- Schedule Type Limits Name
  {89a9cd75-0112-4c9a-ab06-a70a1a2bb134}, !- Default Day Schedule Name
  {8d9a172a-cc7f-495d-b861-37791d2df1d4}, !- Summer Design Day Schedule Name
  {f0d772ee-a3ed-473a-a910-7b75478af65e}; !- Winter Design Day Schedule Name

OS:Schedule:Day,
  {89a9cd75-0112-4c9a-ab06-a70a1a2bb134}, !- Handle
  0700|2300|FullServiceRestaurant|default|hoo Schedule Week Day, !- Name
  {8c4dd880-40e2-49c7-ad88-e6be51f45197}, !- Schedule Type Limits Name
  ,                                       !- Interpolate to Timestep
  7,                                      !- Hour 1
  0,                                      !- Minute 1
  0,                                      !- Value Until Time 1
  23,                                     !- Hour 2
  0,                                      !- Minute 2
  1,                                      !- Value Until Time 2
  24,                                     !- Hour 3
  0,                                      !- Minute 3
  0;                                      !- Value Until Time 3

OS:Schedule:Day,
  {c02fbdbb-b27d-4e89-b503-e7e16a025555}, !- Handle
  Schedule Day 2,                         !- Name
  ,                                       !- Schedule Type Limits Name
  ,                                       !- Interpolate to Timestep
  24,                                     !- Hour 1
  0,                                      !- Minute 1
  0;                                      !- Value Until Time 1

OS:Schedule:Day,
  {f0d772ee-a3ed-473a-a910-7b75478af65e}, !- Handle
  0700|2300|FullServiceRestaurant|default|hoo Winter Design Day, !- Name
  {8c4dd880-40e2-49c7-ad88-e6be51f45197}, !- Schedule Type Limits Name
  ,                                       !- Interpolate to Timestep
  24,                                     !- Hour 1
  0,                                      !- Minute 1
  0;                                      !- Value Until Time 1

OS:Schedule:Day,
  {fa9ae061-1037-407f-bef0-c56d99b93cfe}, !- Handle
  Schedule Day 3,                         !- Name
  ,                                       !- Schedule Type Limits Name
  ,                                       !- Interpolate to Timestep
  24,                                     !- Hour 1
  0,                                      !- Minute 1
  0;                                      !- Value Until Time 1

OS:Schedule:Day,
  {8d9a172a-cc7f-495d-b861-37791d2df1d4}, !- Handle
  0700|2300|FullServiceRestaurant|default|hoo Summer Design Day, !- Name
  {8c4dd880-40e2-49c7-ad88-e6be51f45197}, !- Schedule Type Limits Name
  ,                                       !- Interpolate to Timestep
  24,                                     !- Hour 1
  0,                                      !- Minute 1
  1;                                      !- Value Until Time 1

OS:DefaultScheduleSet,
  {64b5e943-036d-4d9e-8d10-d276375a8abc}, !- Handle
  Building Hours of Operation,            !- Name
  {dd2db91b-2f7a-4a1c-9ce1-5c304319f4db}, !- Hours of Operation Schedule Name
  ,                                       !- Number of People Schedule Name
  ,                                       !- People Activity Level Schedule Name
  ,                                       !- Lighting Schedule Name
  ,                                       !- Electric Equipment Schedule Name
  ,                                       !- Gas Equipment Schedule Name
  ,                                       !- Hot Water Equipment Schedule Name
  ,                                       !- Infiltration Schedule Name
  ,                                       !- Steam Equipment Schedule Name
  ;                                       !- Other Equipment Schedule Name

OS:ScheduleTypeLimits,
  {8c4dd880-40e2-49c7-ad88-e6be51f45197}, !- Handle
  OnOff,                                  !- Name
  0,                                      !- Lower Limit Value {BasedOnField A4}
  1,                                      !- Upper Limit Value {BasedOnField A4}
  Discrete,                               !- Numeric Type
  Availability;                           !- Unit Type

OS:Schedule:Ruleset,
  {6316c00e-6cef-4bbc-a1f5-549f78efea9f}, !- Handle
  0700|2300|FullServiceRestaurant|default|air_velocity, !- Name
  {cee21561-786d-4eca-bbbb-fef86b5140a5}, !- Schedule Type Limits Name
  {8e0b5605-9f16-4db0-bea9-cead1d26adf3}, !- Default Day Schedule Name
  {6042b634-a69c-4774-9035-917402678e4c}, !- Summer Design Day Schedule Name
  {8f3f9f0f-9ffa-422e-9c0a-f640c785246a}; !- Winter Design Day Schedule Name

OS:ScheduleTypeLimits,
  {cee21561-786d-4eca-bbbb-fef86b5140a5}, !- Handle
  Dimensionless Schedule Type Limits,     !- Name
  ,                                       !- Lower Limit Value {BasedOnField A4}
  ,                                       !- Upper Limit Value {BasedOnField A4}
  Continuous,                             !- Numeric Type
  Dimensionless;                          !- Unit Type

OS:Schedule:Day,
  {8e0b5605-9f16-4db0-bea9-cead1d26adf3}, !- Handle
  0700|2300|FullServiceRestaurant|default|air_velocity |default, !- Name
  {cee21561-786d-4eca-bbbb-fef86b5140a5}, !- Schedule Type Limits Name
  ,                                       !- Interpolate to Timestep
  24,                                     !- Hour 1
  0,                                      !- Minute 1
  0.200152;                               !- Value Until Time 1

OS:Schedule:Day,
  {6042b634-a69c-4774-9035-917402678e4c}, !- Handle
  0700|2300|FullServiceRestaurant|default|air_velocity Summer Design Day, !- Name
  {cee21561-786d-4eca-bbbb-fef86b5140a5}, !- Schedule Type Limits Name
  ,                                       !- Interpolate to Timestep
  24,                                     !- Hour 1
  0,                                      !- Minute 1
  0.200152;                               !- Value Until Time 1

OS:Schedule:Day,
  {8f3f9f0f-9ffa-422e-9c0a-f640c785246a}, !- Handle
  0700|2300|FullServiceRestaurant|default|air_velocity Winter Design Day, !- Name
  {cee21561-786d-4eca-bbbb-fef86b5140a5}, !- Schedule Type Limits Name
  ,                                       !- Interpolate to Timestep
  24,                                     !- Hour 1
  0,                                      !- Minute 1
  0.200152;                               !- Value Until Time 1

OS:Schedule:Ruleset,
  {321e4fed-4669-4069-aca3-e6d8fba42674}, !- Handle
  0700|2300|FullServiceRestaurant|Kitchen|clg_setpoint, !- Name
  {a4e14516-8ba0-407c-86a5-a0b47d1788cb}, !- Schedule Type Limits Name
  {a303dd3e-5233-474c-8a3b-7d65ca1f41d1}, !- Default Day Schedule Name
  {ca1e95fb-38df-4e62-b925-a7f8a98436b9}, !- Summer Design Day Schedule Name
  {5bec98eb-9884-4ac5-b597-ee22e98d4fb1}; !- Winter Design Day Schedule Name

OS:ScheduleTypeLimits,
  {a4e14516-8ba0-407c-86a5-a0b47d1788cb}, !- Handle
  Thermostat Cooling Setpoint Schedule Type Limits, !- Name
  0,                                      !- Lower Limit Value {BasedOnField A4}
  100,                                    !- Upper Limit Value {BasedOnField A4}
  Continuous,                             !- Numeric Type
  Temperature;                            !- Unit Type

OS:Schedule:Day,
  {a303dd3e-5233-474c-8a3b-7d65ca1f41d1}, !- Handle
  0700|2300|FullServiceRestaurant|Kitchen|clg_setpoint |default, !- Name
  {a4e14516-8ba0-407c-86a5-a0b47d1788cb}, !- Schedule Type Limits Name
  ,                                       !- Interpolate to Timestep
  24,                                     !- Hour 1
  0,                                      !- Minute 1
  26.0000000000001;                       !- Value Until Time 1

OS:Schedule:Day,
  {ca1e95fb-38df-4e62-b925-a7f8a98436b9}, !- Handle
  0700|2300|FullServiceRestaurant|Kitchen|clg_setpoint Summer Design Day, !- Name
  {a4e14516-8ba0-407c-86a5-a0b47d1788cb}, !- Schedule Type Limits Name
  ,                                       !- Interpolate to Timestep
  24,                                     !- Hour 1
  0,                                      !- Minute 1
  26.0000000000001;                       !- Value Until Time 1

OS:Schedule:Day,
  {5bec98eb-9884-4ac5-b597-ee22e98d4fb1}, !- Handle
  0700|2300|FullServiceRestaurant|Kitchen|clg_setpoint Winter Design Day, !- Name
  {a4e14516-8ba0-407c-86a5-a0b47d1788cb}, !- Schedule Type Limits Name
  ,                                       !- Interpolate to Timestep
  24,                                     !- Hour 1
  0,                                      !- Minute 1
  26.0000000000001;                       !- Value Until Time 1

OS:Schedule:Ruleset,
  {67da0091-d996-4035-b33f-b82b10491e59}, !- Handle
  0700|2300|FullServiceRestaurant|default|htg_setpoint, !- Name
  {76af17ca-107d-40f3-8806-ea3a9ff7d97c}, !- Schedule Type Limits Name
  {df3d8ad8-4994-4b66-b93e-e2f57a2d711f}, !- Default Day Schedule Name
  {f856c3f3-a8cf-4fea-915a-40159a90dfa9}, !- Summer Design Day Schedule Name
  {a82f9be5-c73d-48b6-b19e-4a979e6cb5bb}; !- Winter Design Day Schedule Name

OS:ScheduleTypeLimits,
  {76af17ca-107d-40f3-8806-ea3a9ff7d97c}, !- Handle
  Thermostat Heating Setpoint Schedule Type Limits, !- Name
  0,                                      !- Lower Limit Value {BasedOnField A4}
  100,                                    !- Upper Limit Value {BasedOnField A4}
  Continuous,                             !- Numeric Type
  Temperature;                            !- Unit Type

OS:Schedule:Day,
  {df3d8ad8-4994-4b66-b93e-e2f57a2d711f}, !- Handle
  0700|2300|FullServiceRestaurant|default|htg_setpoint |default, !- Name
  {76af17ca-107d-40f3-8806-ea3a9ff7d97c}, !- Schedule Type Limits Name
  ,                                       !- Interpolate to Timestep
  24,                                     !- Hour 1
  0,                                      !- Minute 1
  21.0000000000001;                       !- Value Until Time 1

OS:Schedule:Day,
  {f856c3f3-a8cf-4fea-915a-40159a90dfa9}, !- Handle
  0700|2300|FullServiceRestaurant|default|htg_setpoint Summer Design Day, !- Name
  {76af17ca-107d-40f3-8806-ea3a9ff7d97c}, !- Schedule Type Limits Name
  ,                                       !- Interpolate to Timestep
  24,                                     !- Hour 1
  0,                                      !- Minute 1
  21.0000000000001;                       !- Value Until Time 1

OS:Schedule:Day,
  {a82f9be5-c73d-48b6-b19e-4a979e6cb5bb}, !- Handle
  0700|2300|FullServiceRestaurant|default|htg_setpoint Winter Design Day, !- Name
  {76af17ca-107d-40f3-8806-ea3a9ff7d97c}, !- Schedule Type Limits Name
  ,                                       !- Interpolate to Timestep
  24,                                     !- Hour 1
  0,                                      !- Minute 1
  21.0000000000001;                       !- Value Until Time 1

OS:Schedule:Ruleset,
  {e14732d6-a654-489e-865b-5ad2d4e20a2d}, !- Handle
  0700|2300|FullServiceRestaurant|default|swh_target_temp, !- Name
  {c25ee3f5-70b1-46fc-8b47-e4105a415742}, !- Schedule Type Limits Name
  {3888a05a-9bd2-44d3-9d97-ecf28de50653}, !- Default Day Schedule Name
  {461a1c65-e017-496c-8855-b5b76337a01d}, !- Summer Design Day Schedule Name
  {6521d4dc-48b3-47e9-981e-09429a497e17}; !- Winter Design Day Schedule Name

OS:ScheduleTypeLimits,
  {c25ee3f5-70b1-46fc-8b47-e4105a415742}, !- Handle
  Temperature Schedule Type Limits,       !- Name
  ,                                       !- Lower Limit Value {BasedOnField A4}
  ,                                       !- Upper Limit Value {BasedOnField A4}
  Continuous,                             !- Numeric Type
  Temperature;                            !- Unit Type

OS:Schedule:Day,
  {3888a05a-9bd2-44d3-9d97-ecf28de50653}, !- Handle
  0700|2300|FullServiceRestaurant|default|swh_target_temp |default, !- Name
  {c25ee3f5-70b1-46fc-8b47-e4105a415742}, !- Schedule Type Limits Name
  ,                                       !- Interpolate to Timestep
  24,                                     !- Hour 1
  0,                                      !- Minute 1
  55.0000000000001;                       !- Value Until Time 1

OS:Schedule:Day,
  {461a1c65-e017-496c-8855-b5b76337a01d}, !- Handle
  0700|2300|FullServiceRestaurant|default|swh_target_temp Summer Design Day, !- Name
  {c25ee3f5-70b1-46fc-8b47-e4105a415742}, !- Schedule Type Limits Name
  ,                                       !- Interpolate to Timestep
  24,                                     !- Hour 1
  0,                                      !- Minute 1
  55.0000000000001;                       !- Value Until Time 1

OS:Schedule:Day,
  {6521d4dc-48b3-47e9-981e-09429a497e17}, !- Handle
  0700|2300|FullServiceRestaurant|default|swh_target_temp Winter Design Day, !- Name
  {c25ee3f5-70b1-46fc-8b47-e4105a415742}, !- Schedule Type Limits Name
  ,                                       !- Interpolate to Timestep
  24,                                     !- Hour 1
  0,                                      !- Minute 1
  55.0000000000001;                       !- Value Until Time 1

OS:Schedule:Ruleset,
  {0dc6b30f-0113-472a-9c64-dbf0fa826f61}, !- Handle
  0700|2300|FullServiceRestaurant|default|rh, !- Name
  {cee21561-786d-4eca-bbbb-fef86b5140a5}, !- Schedule Type Limits Name
  {6e191863-4672-4203-b414-df8d48037403}, !- Default Day Schedule Name
  {ad359f40-5094-4576-bba0-0049f6277ede}, !- Summer Design Day Schedule Name
  {3fa88039-8e4f-4c80-875a-6673beda5489}; !- Winter Design Day Schedule Name

OS:Schedule:Day,
  {6e191863-4672-4203-b414-df8d48037403}, !- Handle
  0700|2300|FullServiceRestaurant|default|rh |default, !- Name
  {cee21561-786d-4eca-bbbb-fef86b5140a5}, !- Schedule Type Limits Name
  ,                                       !- Interpolate to Timestep
  24,                                     !- Hour 1
  0,                                      !- Minute 1
  50;                                     !- Value Until Time 1

OS:Schedule:Day,
  {ad359f40-5094-4576-bba0-0049f6277ede}, !- Handle
  0700|2300|FullServiceRestaurant|default|rh Summer Design Day, !- Name
  {cee21561-786d-4eca-bbbb-fef86b5140a5}, !- Schedule Type Limits Name
  ,                                       !- Interpolate to Timestep
  24,                                     !- Hour 1
  0,                                      !- Minute 1
  50;                                     !- Value Until Time 1

OS:Schedule:Day,
  {3fa88039-8e4f-4c80-875a-6673beda5489}, !- Handle
  0700|2300|FullServiceRestaurant|default|rh Winter Design Day, !- Name
  {cee21561-786d-4eca-bbbb-fef86b5140a5}, !- Schedule Type Limits Name
  ,                                       !- Interpolate to Timestep
  24,                                     !- Hour 1
  0,                                      !- Minute 1
  50;                                     !- Value Until Time 1

OS:Schedule:Ruleset,
  {4a065c6d-fc25-4353-a501-24a013cea0e2}, !- Handle
  0700|2300|FullServiceRestaurant|default|hvac, !- Name
  {ecd1c582-e67a-4bb6-b836-400a28dccce1}, !- Schedule Type Limits Name
  {f9f31fd4-94cf-4ebf-bc2d-50b32d77bcc3}, !- Default Day Schedule Name
  {f32f18ab-0403-418b-857f-6fb20cf09021}, !- Summer Design Day Schedule Name
  {dfa18fa7-e5d9-476b-854c-7d67295224c8}; !- Winter Design Day Schedule Name

OS:ScheduleTypeLimits,
  {ecd1c582-e67a-4bb6-b836-400a28dccce1}, !- Handle
  HVAC Operation Schedule Type Limits,    !- Name
  0,                                      !- Lower Limit Value {BasedOnField A4}
  1,                                      !- Upper Limit Value {BasedOnField A4}
  Discrete,                               !- Numeric Type
  Availability;                           !- Unit Type

OS:Schedule:Day,
  {f9f31fd4-94cf-4ebf-bc2d-50b32d77bcc3}, !- Handle
  0700|2300|FullServiceRestaurant|default|hvac |default, !- Name
  {ecd1c582-e67a-4bb6-b836-400a28dccce1}, !- Schedule Type Limits Name
  ,                                       !- Interpolate to Timestep
  1,                                      !- Hour 1
  0,                                      !- Minute 1
  1,                                      !- Value Until Time 1
  5,                                      !- Hour 2
  0,                                      !- Minute 2
  0,                                      !- Value Until Time 2
  24,                                     !- Hour 3
  0,                                      !- Minute 3
  1;                                      !- Value Until Time 3

OS:Schedule:Day,
  {f32f18ab-0403-418b-857f-6fb20cf09021}, !- Handle
  0700|2300|FullServiceRestaurant|default|hvac Summer Design Day, !- Name
  {ecd1c582-e67a-4bb6-b836-400a28dccce1}, !- Schedule Type Limits Name
  ,                                       !- Interpolate to Timestep
  1,                                      !- Hour 1
  0,                                      !- Minute 1
  1,                                      !- Value Until Time 1
  5,                                      !- Hour 2
  0,                                      !- Minute 2
  0,                                      !- Value Until Time 2
  24,                                     !- Hour 3
  0,                                      !- Minute 3
  1;                                      !- Value Until Time 3

OS:Schedule:Day,
  {dfa18fa7-e5d9-476b-854c-7d67295224c8}, !- Handle
  0700|2300|FullServiceRestaurant|default|hvac Winter Design Day, !- Name
  {ecd1c582-e67a-4bb6-b836-400a28dccce1}, !- Schedule Type Limits Name
  ,                                       !- Interpolate to Timestep
  1,                                      !- Hour 1
  0,                                      !- Minute 1
  1,                                      !- Value Until Time 1
  5,                                      !- Hour 2
  0,                                      !- Minute 2
  0,                                      !- Value Until Time 2
  24,                                     !- Hour 3
  0,                                      !- Minute 3
  1;                                      !- Value Until Time 3

OS:Schedule:Ruleset,
  {e2ecc677-da11-43e0-b805-b0047da40fdd}, !- Handle
  0700|2300|FullServiceRestaurant|default|work_eff, !- Name
  {31a6651d-a8d4-4963-bc8c-f7398c857705}, !- Schedule Type Limits Name
  {d80172f9-35e0-4035-9d6c-8815f817a2ae}, !- Default Day Schedule Name
  {eb2456a4-3c3c-4885-9f32-67198fd839ae}, !- Summer Design Day Schedule Name
  {7ae30c35-ee9a-41a8-8a0b-ca9c1e85d194}; !- Winter Design Day Schedule Name

OS:ScheduleTypeLimits,
  {31a6651d-a8d4-4963-bc8c-f7398c857705}, !- Handle
  Fraction Schedule Type Limits,          !- Name
  0,                                      !- Lower Limit Value {BasedOnField A4}
  1,                                      !- Upper Limit Value {BasedOnField A4}
  Continuous,                             !- Numeric Type
  Dimensionless;                          !- Unit Type

OS:Schedule:Day,
  {d80172f9-35e0-4035-9d6c-8815f817a2ae}, !- Handle
  0700|2300|FullServiceRestaurant|default|work_eff |default, !- Name
  {31a6651d-a8d4-4963-bc8c-f7398c857705}, !- Schedule Type Limits Name
  ,                                       !- Interpolate to Timestep
  24,                                     !- Hour 1
  0,                                      !- Minute 1
  0;                                      !- Value Until Time 1

OS:Schedule:Day,
  {eb2456a4-3c3c-4885-9f32-67198fd839ae}, !- Handle
  0700|2300|FullServiceRestaurant|default|work_eff Summer Design Day, !- Name
  {31a6651d-a8d4-4963-bc8c-f7398c857705}, !- Schedule Type Limits Name
  ,                                       !- Interpolate to Timestep
  24,                                     !- Hour 1
  0,                                      !- Minute 1
  0;                                      !- Value Until Time 1

OS:Schedule:Day,
  {7ae30c35-ee9a-41a8-8a0b-ca9c1e85d194}, !- Handle
  0700|2300|FullServiceRestaurant|default|work_eff Winter Design Day, !- Name
  {31a6651d-a8d4-4963-bc8c-f7398c857705}, !- Schedule Type Limits Name
  ,                                       !- Interpolate to Timestep
  24,                                     !- Hour 1
  0,                                      !- Minute 1
  0;                                      !- Value Until Time 1

OS:Schedule:Ruleset,
  {916b8582-23c7-4649-9ed4-e7a0775cb173}, !- Handle
  0700|2300|FullServiceRestaurant|default|lighting, !- Name
  {62346250-d303-4f98-a076-de588d83b319}, !- Schedule Type Limits Name
  {83d1c558-4a96-4137-9ece-687794d1f4d8}, !- Default Day Schedule Name
  {32c1f411-1a76-4a85-b36b-19e334204442}, !- Summer Design Day Schedule Name
  {715e49dd-b162-48a9-93b4-bbd4e37300aa}; !- Winter Design Day Schedule Name

OS:ScheduleTypeLimits,
  {62346250-d303-4f98-a076-de588d83b319}, !- Handle