
OS:Version,
  {83d0064a-3945-414d-b294-5d4884b61107}, !- Handle
  1.5.5;                                  !- Version Identifier

OS:ClimateZones,
  {135edfab-17e7-40db-a436-27d385a8cd6d}, !- Handle
  ,                                       !- Active Institution
  ,                                       !- Active Year
  ASHRAE,                                 !- Climate Zone Institution Name 1
  ANSI/ASHRAE Standard 169,               !- Climate Zone Document Name 1
  2006,                                   !- Climate Zone Document Year 1
  ,                                       !- Climate Zone Value 1
  CEC,                                    !- Climate Zone Institution Name 2
  California Climate Zone Descriptions,   !- Climate Zone Document Name 2
  1995,                                   !- Climate Zone Document Year 2
  ;                                       !- Climate Zone Value 2

OS:YearDescription,
  {513d8dda-86cb-442a-b01c-1f7f0e0ac70e}; !- Handle

OS:RadianceParameters,
  {270a96f1-3c86-4b75-a667-cdf22790e2c8}, !- Handle
  1,                                      !- Accumulated Rays per Record
  0,                                      !- Direct Threshold
  1,                                      !- Direct Certainty
  1,                                      !- Direct Jitter
  1,                                      !- Direct Pretest
  6,                                      !- Ambient Bounces VMX
  2,                                      !- Ambient Bounces DMX
  4050,                                   !- Ambient Divisions VMX
  512,                                    !- Ambient Divisions DMX
  256,                                    !- Ambient Supersamples
  0.001,                                  !- Limit Weight VMX
  0.001,                                  !- Limit Weight DMX
  500,                                    !- Klems Sampling Density
  146;                                    !- Sky Discretization Resolution

OS:SimulationControl,
  {2c487a4c-bac9-4ac5-b669-1e49d9da7c2b}, !- Handle
  ,                                       !- Do Zone Sizing Calculation
  ,                                       !- Do System Sizing Calculation
  ,                                       !- Do Plant Sizing Calculation
  No,                                     !- Run Simulation for Sizing Periods
  ,                                       !- Run Simulation for Weather File Run Periods
  0.04,                                   !- Loads Convergence Tolerance Value
  ,                                       !- Temperature Convergence Tolerance Value {deltaC}
  ,                                       !- Solar Distribution
  ,                                       !- Maximum Number of Warmup Days
  2;                                      !- Minimum Number of Warmup Days

OS:Sizing:Parameters,
  {dde5af6f-7923-4600-a28a-7556673a0266}, !- Handle
  1.25,                                   !- Heating Sizing Factor
  1.15;                                   !- Cooling Sizing Factor

OS:ProgramControl,
  {05027a99-f2b3-4aeb-afc6-1425fbb4371d}; !- Handle

OS:Timestep,
  {4ebc9f1e-4707-402e-9844-67eb1ffbd522}, !- Handle
  2;                                      !- Number of Timesteps per Hour

OS:OutputControl:ReportingTolerances,
  {65797aa2-06a9-45fe-b69d-bc6e060399d3}; !- Handle

OS:ConvergenceLimits,
  {9fc11aba-8822-4f3d-970c-46391ba4040d}; !- Handle

OS:ShadowCalculation,
  {ca758bea-4416-4626-9bba-3d8795c79bd6}, !- Handle
  7,                                      !- Calculation Frequency
  15000;                                  !- Maximum Figures in Shadow Overlap Calculations

OS:SurfaceConvectionAlgorithm:Inside,
  {aaabfc36-718a-4ab0-b622-f186ebb45230}, !- Handle
  TARP;                                   !- Algorithm

OS:SurfaceConvectionAlgorithm:Outside,
  {9a0a9f6f-4bbd-4b12-a121-9492a1fcd7d6}, !- Handle
  DOE-2;                                  !- Algorithm

OS:HeatBalanceAlgorithm,
  {9d93e563-e1e0-46d7-9e39-d1c8aceb7212}, !- Handle
  ConductionTransferFunction,             !- Algorithm
  200;                                    !- Surface Temperature Upper Limit {F}

OS:ZoneAirHeatBalanceAlgorithm,
  {8520d93e-310f-4696-9bcd-36228bfdd743}, !- Handle
  AnalyticalSolution;                     !- Algorithm

OS:ZoneAirContaminantBalance,
  {eb5fc3ae-fb22-4160-8fcb-3e3b22b000d3}; !- Handle

OS:ZoneCapacitanceMultiplier:ResearchSpecial,
  {4020ce4f-5a7a-4849-8028-8305d7b751b1}, !- Handle
  ,                                       !- Temperature Capacity Multiplier
  ,                                       !- Humidity Capacity Multiplier
  ;                                       !- Carbon Dioxide Capacity Multiplier

OS:RunPeriod,
  {28df894d-6af9-4fb8-8f56-df1753344aa3}, !- Handle
  Run Period 1,                           !- Name
  1,                                      !- Begin Month
  1,                                      !- Begin Day of Month
  12,                                     !- End Month
  31,                                     !- End Day of Month
  ,                                       !- Use Weather File Holidays and Special Days
  ,                                       !- Use Weather File Daylight Saving Period
  ,                                       !- Apply Weekend Holiday Rule
  ,                                       !- Use Weather File Rain Indicators
  ,                                       !- Use Weather File Snow Indicators
  ;                                       !- Number of Times Runperiod to be Repeated

OS:Building,
  {bf305633-c5a1-4881-9edf-ca5e1a8e1274}, !- Handle
  Building 1,                             !- Name
  ,                                       !- Building Sector Type
  ,                                       !- North Axis {deg}
  ,                                       !- Nominal Floor to Floor Height {m}
  ,                                       !- Space Type Name
  ,                                       !- Default Construction Set Name
  {1494ecca-b0d6-4019-8524-66b6fc0b465b}, !- Default Schedule Set Name
  ,                                       !- Standards Number of Stories
  ,                                       !- Standards Number of Above Ground Stories
  FullServiceRestaurant;                  !- Standards Building Type

OS:LifeCycleCost:Parameters,
  {231cf8a0-f0e7-4251-a99f-11f0d464e661}, !- Handle
  FEMP,                                   !- Analysis Type
  ,                                       !- Discounting Convention
  ,                                       !- Inflation Approach
  ,                                       !- Real Discount Rate
  ,                                       !- Nominal Discount Rate
  ,                                       !- Inflation
  ,                                       !- Base Date Month
  ,                                       !- Base Date Year
  ,                                       !- Service Date Month
  ,                                       !- Service Date Year
  ,                                       !- Length of Study Period in Years
  ,                                       !- Tax Rate
  ,                                       !- Depreciation Method
  Yes;                                    !- Use NIST Fuel Escalation Rates

OS:Facility,
  {3ba8e45b-b833-44eb-a723-ea6c3946dc96}; !- Handle

OS:SpaceType,
  {23270475-8753-416a-a48f-ebb64a37a94f}, !- Handle
  FullServiceRestaurant|Dining|DOE Ref Pre-1980|ASHRAE 169-2006-5A, !- Name
  {3e6748eb-c4c2-404e-86c2-269d1c72417c}, !- Default Construction Set Name
  {f2b1864d-2ff2-465b-bf3a-ee998c7b72d2}, !- Default Schedule Set Name
  {92fee09c-1584-4b01-b9c8-eb843fab1377}, !- Group Rendering Name
  {0068e07b-f28a-4449-936b-eefdb1930c44}, !- Design Specification Outdoor Air Object Name
  FullServiceRestaurant,                  !- Standards Building Type
  Dining;                                 !- Standards Space Type

OS:Rendering:Color,
  {92fee09c-1584-4b01-b9c8-eb843fab1377}, !- Handle
  Rendering Color 1,                      !- Name
  31,                                     !- Rendering Red Value
  169,                                    !- Rendering Green Value
  34;                                     !- Rendering Blue Value

OS:SpaceType,
  {2320ae67-8e60-4408-8259-15697b5ace51}, !- Handle
  FullServiceRestaurant|Kitchen|DOE Ref Pre-1980|ASHRAE 169-2006-5A, !- Name
  {3e6748eb-c4c2-404e-86c2-269d1c72417c}, !- Default Construction Set Name
  {27891610-3c59-4ea9-99c9-18f2549a52df}, !- Default Schedule Set Name
  {4463b3ce-73df-4beb-875d-b11de9b1859b}, !- Group Rendering Name
  {cb2825ce-b427-4362-aa7d-5b8d088fddca}, !- Design Specification Outdoor Air Object Name
  FullServiceRestaurant,                  !- Standards Building Type
  Kitchen;                                !- Standards Space Type

OS:Rendering:Color,
  {4463b3ce-73df-4beb-875d-b11de9b1859b}, !- Handle
  Rendering Color 2,                      !- Name
  78,                                     !- Rendering Red Value
  222,                                    !- Rendering Green Value
  133;                                    !- Rendering Blue Value

OS:Schedule:Ruleset,
  {ac3fa651-0689-434c-be79-4bf98fdf1302}, !- Handle
  0700|2300|FullServiceRestaurant|default|hoo, !- Name
  {c3003a42-dac3-4c2a-be90-dbe38734d366}, !- Schedule Type Limits Name
  {d867c492-4687-4d2a-8f0a-99b1a988206c}, !- Default Day Schedule Name
  {e7c1f2c1-13cd-46b1-9364-754c1242521b}, !- Summer Design Day Schedule Name
  {d68c32fe-5c68-453f-a584-e6bb50018df9}; !- Winter Design Day Schedule Name

OS:Schedule:Day,
  {d867c492-4687-4d2a-8f0a-99b1a988206c}, !- Handle
  0700|2300|FullServiceRestaurant|default|hoo Schedule Week Day, !- Name
  {c3003a42-dac3-4c2a-be90-dbe38734d366}, !- Schedule Type Limits Name
  ,                                       !- Interpolate to Timestep
  7,                                      !- Hour 1
  0,                                      !- Minute 1
  0,                                      !- Value Until Time 1
  23,                                     !- Hour 2
  0,                                      !- Minute 2
  1,                                      !- Value Until Time 2
  24,                                     !- Hour 3
  0,                                      !- Minute 3
  0;                                      !- Value Until Time 3

OS:Schedule:Day,
  {89420062-41b8-4287-8dc6-7b0c380b16c8}, !- Handle
  Schedule Day 2,                         !- Name
  ,                                       !- Schedule Type Limits Name
  ,                                       !- Interpolate to Timestep
  24,                                     !- Hour 1
  0,                                      !- Minute 1
  0;                                      !- Value Until Time 1

OS:Schedule:Day,
  {d68c32fe-5c68-453f-a584-e6bb50018df9}, !- Handle
  0700|2300|FullServiceRestaurant|default|hoo Winter Design Day, !- Name
  {c3003a42-dac3-4c2a-be90-dbe38734d366}, !- Schedule Type Limits Name
  ,                                       !- Interpolate to Timestep
  24,                                     !- Hour 1
  0,                                      !- Minute 1
  0;                                      !- Value Until Time 1

OS:Schedule:Day,
  {ad5397dc-03f2-4b94-828b-85a12d623219}, !- Handle
  Schedule Day 3,                         !- Name
  ,                                       !- Schedule Type Limits Name
  ,                                       !- Interpolate to Timestep
  24,                                     !- Hour 1
  0,                                      !- Minute 1
  0;                                      !- Value Until Time 1

OS:Schedule:Day,
  {e7c1f2c1-13cd-46b1-9364-754c1242521b}, !- Handle
  0700|2300|FullServiceRestaurant|default|hoo Summer Design Day, !- Name
  {c3003a42-dac3-4c2a-be90-dbe38734d366}, !- Schedule Type Limits Name
  ,                                       !- Interpolate to Timestep
  24,                                     !- Hour 1
  0,                                      !- Minute 1
  1;                                      !- Value Until Time 1

OS:DefaultScheduleSet,
  {1494ecca-b0d6-4019-8524-66b6fc0b465b}, !- Handle
  Building Hours of Operation,            !- Name
  {ac3fa651-0689-434c-be79-4bf98fdf1302}, !- Hours of Operation Schedule Name
  ,                                       !- Number of People Schedule Name
  ,                                       !- People Activity Level Schedule Name
  ,                                       !- Lighting Schedule Name
  ,                                       !- Electric Equipment Schedule Name
  ,                                       !- Gas Equipment Schedule Name
  ,                                       !- Hot Water Equipment Schedule Name
  ,                                       !- Infiltration Schedule Name
  ,                                       !- Steam Equipment Schedule Name
  ;                                       !- Other Equipment Schedule Name

OS:ScheduleTypeLimits,
  {c3003a42-dac3-4c2a-be90-dbe38734d366}, !- Handle
  OnOff,                                  !- Name
  0,                                      !- Lower Limit Value {BasedOnField A4}
  1,                                      !- Upper Limit Value {BasedOnField A4}
  Discrete,                               !- Numeric Type
  Availability;                           !- Unit Type

OS:Schedule:Ruleset,
  {f45db30a-1d9b-4760-ba38-f25a1ea3e28f}, !- Handle
  0700|2300|FullServiceRestaurant|default|air_velocity, !- Name
  {02a8182b-046e-4b1c-9cd1-592ac1780aa8}, !- Schedule Type Limits Name
  {b0f119be-9a8c-494a-8b04-f1c4acfff1e3}, !- Default Day Schedule Name
  {86213f90-c5ec-465c-82c0-f1d5f40f7f49}, !- Summer Design Day Schedule Name
  {f0e31196-0582-4578-b7f8-6b1928a8a745}; !- Winter Design Day Schedule Name

OS:ScheduleTypeLimits,
  {02a8182b-046e-4b1c-9cd1-592ac1780aa8}, !- Handle
  Dimensionless Schedule Type Limits,     !- Name
  ,                                       !- Lower Limit Value {BasedOnField A4}
  ,                                       !- Upper Limit Value {BasedOnField A4}
  Continuous,                             !- Numeric Type
  Dimensionless;                          !- Unit Type

OS:Schedule:Day,
  {b0f119be-9a8c-494a-8b04-f1c4acfff1e3}, !- Handle
  0700|2300|FullServiceRestaurant|default|air_velocity |default, !- Name
  {02a8182b-046e-4b1c-9cd1-592ac1780aa8}, !- Schedule Type Limits Name
  ,                                       !- Interpolate to Timestep
  24,                                     !- Hour 1
  0,                                      !- Minute 1
  0.200152;                               !- Value Until Time 1

OS:Schedule:Day,
  {86213f90-c5ec-465c-82c0-f1d5f40f7f49}, !- Handle
  0700|2300|FullServiceRestaurant|default|air_velocity Summer Design Day, !- Name
  {02a8182b-046e-4b1c-9cd1-592ac1780aa8}, !- Schedule Type Limits Name
  ,                                       !- Interpolate to Timestep
  24,                                     !- Hour 1
  0,                                      !- Minute 1
  0.200152;                               !- Value Until Time 1

OS:Schedule:Day,
  {f0e31196-0582-4578-b7f8-6b1928a8a745}, !- Handle
  0700|2300|FullServiceRestaurant|default|air_velocity Winter Design Day, !- Name
  {02a8182b-046e-4b1c-9cd1-592ac1780aa8}, !- Schedule Type Limits Name
  ,                                       !- Interpolate to Timestep
  24,                                     !- Hour 1
  0,                                      !- Minute 1
  0.200152;                               !- Value Until Time 1

OS:Schedule:Ruleset,
  {0fa85fb7-1477-4ec7-9c29-ed6c8c1a10b0}, !- Handle
  0700|2300|FullServiceRestaurant|Kitchen|clg_setpoint, !- Name
  {e0031dee-a571-4513-bd0c-1637e941be36}, !- Schedule Type Limits Name
  {3b6e401b-0a9b-437c-9661-c44a94e5584d}, !- Default Day Schedule Name
  {1b7bb3ce-8b43-4ecf-8fbc-4b4ad31251e7}, !- Summer Design Day Schedule Name
  {c1772be5-b85e-46fc-a2b5-a68aac36902c}; !- Winter Design Day Schedule Name

OS:ScheduleTypeLimits,
  {e0031dee-a571-4513-bd0c-1637e941be36}, !- Handle
  Thermostat Cooling Setpoint Schedule Type Limits, !- Name
  0,                                      !- Lower Limit Value {BasedOnField A4}
  100,                                    !- Upper Limit Value {BasedOnField A4}
  Continuous,                             !- Numeric Type
  Temperature;                            !- Unit Type

OS:Schedule:Day,
  {3b6e401b-0a9b-437c-9661-c44a94e5584d}, !- Handle
  0700|2300|FullServiceRestaurant|Kitchen|clg_setpoint |default, !- Name
  {e0031dee-a571-4513-bd0c-1637e941be36}, !- Schedule Type Limits Name
  ,                                       !- Interpolate to Timestep
  24,                                     !- Hour 1
  0,                                      !- Minute 1
  26.0000000000001;                       !- Value Until Time 1

OS:Schedule:Day,
  {1b7bb3ce-8b43-4ecf-8fbc-4b4ad31251e7}, !- Handle
  0700|2300|FullServiceRestaurant|Kitchen|clg_setpoint Summer Design Day, !- Name
  {e0031dee-a571-4513-bd0c-1637e941be36}, !- Schedule Type Limits Name
  ,                                       !- Interpolate to Timestep
  24,                                     !- Hour 1
  0,                                      !- Minute 1
  26.0000000000001;                       !- Value Until Time 1

OS:Schedule:Day,
  {c1772be5-b85e-46fc-a2b5-a68aac36902c}, !- Handle
  0700|2300|FullServiceRestaurant|Kitchen|clg_setpoint Winter Design Day, !- Name
  {e0031dee-a571-4513-bd0c-1637e941be36}, !- Schedule Type Limits Name
  ,                                       !- Interpolate to Timestep
  24,                                     !- Hour 1
  0,                                      !- Minute 1
  26.0000000000001;                       !- Value Until Time 1

OS:Schedule:Ruleset,
  {dbcdb76e-5e5a-452f-b287-93d614ad8d30}, !- Handle
  0700|2300|FullServiceRestaurant|default|htg_setpoint, !- Name
  {cca02582-97ab-42db-9000-28df9ca68123}, !- Schedule Type Limits Name
  {64e26a54-0f30-408b-bc2b-e9955de5cd14}, !- Default Day Schedule Name
  {1d468cbe-447f-493a-b8c9-1208fbc92e72}, !- Summer Design Day Schedule Name
  {bdeacfe3-5d03-49a8-b02c-e583eae13f14}; !- Winter Design Day Schedule Name

OS:ScheduleTypeLimits,
  {cca02582-97ab-42db-9000-28df9ca68123}, !- Handle
  Thermostat Heating Setpoint Schedule Type Limits, !- Name
  0,                                      !- Lower Limit Value {BasedOnField A4}
  100,                                    !- Upper Limit Value {BasedOnField A4}
  Continuous,                             !- Numeric Type
  Temperature;                            !- Unit Type

OS:Schedule:Day,
  {64e26a54-0f30-408b-bc2b-e9955de5cd14}, !- Handle
  0700|2300|FullServiceRestaurant|default|htg_setpoint |default, !- Name
  {cca02582-97ab-42db-9000-28df9ca68123}, !- Schedule Type Limits Name
  ,                                       !- Interpolate to Timestep
  24,                                     !- Hour 1
  0,                                      !- Minute 1
  21.0000000000001;                       !- Value Until Time 1

OS:Schedule:Day,
  {1d468cbe-447f-493a-b8c9-1208fbc92e72}, !- Handle
  0700|2300|FullServiceRestaurant|default|htg_setpoint Summer Design Day, !- Name
  {cca02582-97ab-42db-9000-28df9ca68123}, !- Schedule Type Limits Name
  ,                                       !- Interpolate to Timestep
  24,                                     !- Hour 1
  0,                                      !- Minute 1
  21.0000000000001;                       !- Value Until Time 1

OS:Schedule:Day,
  {bdeacfe3-5d03-49a8-b02c-e583eae13f14}, !- Handle
  0700|2300|FullServiceRestaurant|default|htg_setpoint Winter Design Day, !- Name
  {cca02582-97ab-42db-9000-28df9ca68123}, !- Schedule Type Limits Name
  ,                                       !- Interpolate to Timestep
  24,                                     !- Hour 1
  0,                                      !- Minute 1
  21.0000000000001;                       !- Value Until Time 1

OS:Schedule:Ruleset,
  {abc5284c-160c-4a1a-9da2-8d4193b7ca1c}, !- Handle
  0700|2300|FullServiceRestaurant|default|swh_target_temp, !- Name
  {14d9cbc1-5f3b-4052-840c-ebfc57faaed6}, !- Schedule Type Limits Name
  {22bf49d1-54b2-42dc-a9ff-b3d9677c7dc0}, !- Default Day Schedule Name
  {6671156a-f890-4a72-80ae-f5f1124f0027}, !- Summer Design Day Schedule Name
  {7f484250-a2ec-4c41-bc4d-73a6bb08301c}; !- Winter Design Day Schedule Name

OS:ScheduleTypeLimits,
  {14d9cbc1-5f3b-4052-840c-ebfc57faaed6}, !- Handle
  Temperature Schedule Type Limits,       !- Name
  ,                                       !- Lower Limit Value {BasedOnField A4}
  ,                                       !- Upper Limit Value {BasedOnField A4}
  Continuous,                             !- Numeric Type
  Temperature;                            !- Unit Type

OS:Schedule:Day,
  {22bf49d1-54b2-42dc-a9ff-b3d9677c7dc0}, !- Handle
  0700|2300|FullServiceRestaurant|default|swh_target_temp |default, !- Name
  {14d9cbc1-5f3b-4052-840c-ebfc57faaed6}, !- Schedule Type Limits Name
  ,                                       !- Interpolate to Timestep
  24,                                     !- Hour 1
  0,                                      !- Minute 1
  55.0000000000001;                       !- Value Until Time 1

OS:Schedule:Day,
  {6671156a-f890-4a72-80ae-f5f1124f0027}, !- Handle
  0700|2300|FullServiceRestaurant|default|swh_target_temp Summer Design Day, !- Name
  {14d9cbc1-5f3b-4052-840c-ebfc57faaed6}, !- Schedule Type Limits Name
  ,                                       !- Interpolate to Timestep
  24,                                     !- Hour 1
  0,                                      !- Minute 1
  55.0000000000001;                       !- Value Until Time 1

OS:Schedule:Day,
  {7f484250-a2ec-4c41-bc4d-73a6bb08301c}, !- Handle
  0700|2300|FullServiceRestaurant|default|swh_target_temp Winter Design Day, !- Name
  {14d9cbc1-5f3b-4052-840c-ebfc57faaed6}, !- Schedule Type Limits Name
  ,                                       !- Interpolate to Timestep
  24,                                     !- Hour 1
  0,                                      !- Minute 1
  55.0000000000001;                       !- Value Until Time 1

OS:Schedule:Ruleset,
  {5eba67fb-7c11-4384-abd4-20748288ec25}, !- Handle
  0700|2300|FullServiceRestaurant|default|rh, !- Name
  {02a8182b-046e-4b1c-9cd1-592ac1780aa8}, !- Schedule Type Limits Name
  {ea102558-08d8-4f75-8e1b-4e70b85c4685}, !- Default Day Schedule Name
  {e3e5786c-f13c-4d6c-96b7-a73fe46f4964}, !- Summer Design Day Schedule Name
  {e88f85bd-726d-4ffd-b29f-6cb568c4326b}; !- Winter Design Day Schedule Name

OS:Schedule:Day,
  {ea102558-08d8-4f75-8e1b-4e70b85c4685}, !- Handle
  0700|2300|FullServiceRestaurant|default|rh |default, !- Name
  {02a8182b-046e-4b1c-9cd1-592ac1780aa8}, !- Schedule Type Limits Name
  ,                                       !- Interpolate to Timestep
  24,                                     !- Hour 1
  0,                                      !- Minute 1
  50;                                     !- Value Until Time 1

OS:Schedule:Day,
  {e3e5786c-f13c-4d6c-96b7-a73fe46f4964}, !- Handle
  0700|2300|FullServiceRestaurant|default|rh Summer Design Day, !- Name
  {02a8182b-046e-4b1c-9cd1-592ac1780aa8}, !- Schedule Type Limits Name
  ,                                       !- Interpolate to Timestep
  24,                                     !- Hour 1
  0,                                      !- Minute 1
  50;                                     !- Value Until Time 1

OS:Schedule:Day,
  {e88f85bd-726d-4ffd-b29f-6cb568c4326b}, !- Handle
  0700|2300|FullServiceRestaurant|default|rh Winter Design Day, !- Name
  {02a8182b-046e-4b1c-9cd1-592ac1780aa8}, !- Schedule Type Limits Name
  ,                                       !- Interpolate to Timestep
  24,                                     !- Hour 1
  0,                                      !- Minute 1
  50;                                     !- Value Until Time 1

OS:Schedule:Ruleset,
  {8e0d2220-b9b5-450c-9827-6fd472677855}, !- Handle
  0700|2300|FullServiceRestaurant|default|hvac, !- Name
  {361c0bfc-e260-499b-b3f5-bede8fa80a22}, !- Schedule Type Limits Name
  {f3d0bf64-3eb1-48eb-9c07-4065a98357ab}, !- Default Day Schedule Name
  {ed8c1f42-708a-4e2c-a52b-368f2700a1d1}, !- Summer Design Day Schedule Name
  {aabca2cb-6677-4d59-9bbf-b73439203004}; !- Winter Design Day Schedule Name

OS:ScheduleTypeLimits,
  {361c0bfc-e260-499b-b3f5-bede8fa80a22}, !- Handle
  HVAC Operation Schedule Type Limits,    !- Name
  0,                                      !- Lower Limit Value {BasedOnField A4}
  1,                                      !- Upper Limit Value {BasedOnField A4}
  Discrete,                               !- Numeric Type
  Availability;                           !- Unit Type

OS:Schedule:Day,
  {f3d0bf64-3eb1-48eb-9c07-4065a98357ab}, !- Handle
  0700|2300|FullServiceRestaurant|default|hvac |default, !- Name
  {361c0bfc-e260-499b-b3f5-bede8fa80a22}, !- Schedule Type Limits Name
  ,                                       !- Interpolate to Timestep
  1,                                      !- Hour 1
  0,                                      !- Minute 1
  1,                                      !- Value Until Time 1
  5,                                      !- Hour 2
  0,                                      !- Minute 2
  0,                                      !- Value Until Time 2
  24,                                     !- Hour 3
  0,                                      !- Minute 3
  1;                                      !- Value Until Time 3

OS:Schedule:Day,
  {ed8c1f42-708a-4e2c-a52b-368f2700a1d1}, !- Handle
  0700|2300|FullServiceRestaurant|default|hvac Summer Design Day, !- Name
  {361c0bfc-e260-499b-b3f5-bede8fa80a22}, !- Schedule Type Limits Name
  ,                                       !- Interpolate to Timestep
  1,                                      !- Hour 1
  0,                                      !- Minute 1
  1,                                      !- Value Until Time 1
  5,                                      !- Hour 2
  0,                                      !- Minute 2
  0,                                      !- Value Until Time 2
  24,                                     !- Hour 3
  0,                                      !- Minute 3
  1;                                      !- Value Until Time 3

OS:Schedule:Day,
  {aabca2cb-6677-4d59-9bbf-b73439203004}, !- Handle
  0700|2300|FullServiceRestaurant|default|hvac Winter Design Day, !- Name
  {361c0bfc-e260-499b-b3f5-bede8fa80a22}, !- Schedule Type Limits Name
  ,                                       !- Interpolate to Timestep
  1,                                      !- Hour 1
  0,                                      !- Minute 1
  1,                                      !- Value Until Time 1
  5,                                      !- Hour 2
  0,                                      !- Minute 2
  0,                                      !- Value Until Time 2
  24,                                     !- Hour 3
  0,                                      !- Minute 3
  1;                                      !- Value Until Time 3

OS:Schedule:Ruleset,
  {01d52b05-9f13-4504-92ee-f421afa2cb4b}, !- Handle
  0700|2300|FullServiceRestaurant|default|work_eff, !- Name
  {306f61b0-c601-4797-b006-60332d69d6a1}, !- Schedule Type Limits Name
  {128d1ad3-1b5b-4f2b-96c4-28493681a23e}, !- Default Day Schedule Name
  {1b682fbf-b6db-4d21-9bc5-7b94ea8a7163}, !- Summer Design Day Schedule Name
  {c279e2fc-2b5d-4c36-8e75-9352e08b2136}; !- Winter Design Day Schedule Name

OS:ScheduleTypeLimits,
  {306f61b0-c601-4797-b006-60332d69d6a1}, !- Handle
  Fraction Schedule Type Limits,          !- Name
  0,                                      !- Lower Limit Value {BasedOnField A4}
  1,                                      !- Upper Limit Value {BasedOnField A4}
  Continuous,                             !- Numeric Type
  Dimensionless;                          !- Unit Type

OS:Schedule:Day,
  {128d1ad3-1b5b-4f2b-96c4-28493681a23e}, !- Handle
  0700|2300|FullServiceRestaurant|default|work_eff |default, !- Name
  {306f61b0-c601-4797-b006-60332d69d6a1}, !- Schedule Type Limits Name
  ,                                       !- Interpolate to Timestep
  24,                                     !- Hour 1
  0,                                      !- Minute 1
  0;                                      !- Value Until Time 1

OS:Schedule:Day,
  {1b682fbf-b6db-4d21-9bc5-7b94ea8a7163}, !- Handle
  0700|2300|FullServiceRestaurant|default|work_eff Summer Design Day, !- Name
  {306f61b0-c601-4797-b006-60332d69d6a1}, !- Schedule Type Limits Name
  ,                                       !- Interpolate to Timestep
  24,                                     !- Hour 1
  0,                                      !- Minute 1
  0;                                      !- Value Until Time 1

OS:Schedule:Day,
  {c279e2fc-2b5d-4c36-8e75-9352e08b2136}, !- Handle
  0700|2300|FullServiceRestaurant|default|work_eff Winter Design Day, !- Name
  {306f61b0-c601-4797-b006-60332d69d6a1}, !- Schedule Type Limits Name
  ,                                       !- Interpolate to Timestep
  24,                                     !- Hour 1
  0,                                      !- Minute 1
  0;                                      !- Value Until Time 1

OS:Schedule:Ruleset,
  {2f296de1-914b-4a1c-b6f6-f736b03160ee}, !- Handle
  0700|2300|FullServiceRestaurant|default|lighting, !- Name
  {b082d956-0ec3-4029-9823-07e306458d97}, !- Schedule Type Limits Name
  {2d0a3ca5-6ffd-4988-9ffb-460d682c843c}, !- Default Day Schedule Name
  {f4d48831-ba9c-4bce-92ac-4bf5c55ac38b}, !- Summer Design Day Schedule Name
  {587289ab-77ca-4d3c-805b-5199e96badd7}; !- Winter Design Day Schedule Name

OS:ScheduleTypeLimits,
  {b082d956-0ec3-4029-9823-07e306458d97}, !- Handle