
OS:Version,
  {4acae358-b16b-49da-bd3e-f3ca9f255d5b}, !- Handle
  1.6.0;                                  !- Version Identifier

OS:ClimateZones,
  {135edfab-17e7-40db-a436-27d385a8cd6d}, !- Handle
  ,                                       !- Active Institution
  ,                                       !- Active Year
  ASHRAE,                                 !- Climate Zone Institution Name 1
  ANSI/ASHRAE Standard 169,               !- Climate Zone Document Name 1
  2006,                                   !- Climate Zone Document Year 1
  ,                                       !- Climate Zone Value 1
  CEC,                                    !- Climate Zone Institution Name 2
  California Climate Zone Descriptions,   !- Climate Zone Document Name 2
  1995,                                   !- Climate Zone Document Year 2
  ;                                       !- Climate Zone Value 2

OS:YearDescription,
  {513d8dda-86cb-442a-b01c-1f7f0e0ac70e}; !- Handle

OS:RadianceParameters,
  {270a96f1-3c86-4b75-a667-cdf22790e2c8}, !- Handle
  1,                                      !- Accumulated Rays per Record
  0,                                      !- Direct Threshold
  1,                                      !- Direct Certainty
  1,                                      !- Direct Jitter
  1,                                      !- Direct Pretest
  6,                                      !- Ambient Bounces VMX
  2,                                      !- Ambient Bounces DMX
  4050,                                   !- Ambient Divisions VMX
  512,                                    !- Ambient Divisions DMX
  256,                                    !- Ambient Supersamples
  0.001,                                  !- Limit Weight VMX
  0.001,                                  !- Limit Weight DMX
  500,                                    !- Klems Sampling Density
  146;                                    !- Sky Discretization Resolution

OS:SimulationControl,
  {2c487a4c-bac9-4ac5-b669-1e49d9da7c2b}, !- Handle
  ,                                       !- Do Zone Sizing Calculation
  ,                                       !- Do System Sizing Calculation
  ,                                       !- Do Plant Sizing Calculation
  No,                                     !- Run Simulation for Sizing Periods
  ,                                       !- Run Simulation for Weather File Run Periods
  0.04,                                   !- Loads Convergence Tolerance Value
  ,                                       !- Temperature Convergence Tolerance Value {deltaC}
  ,                                       !- Solar Distribution
  ,                                       !- Maximum Number of Warmup Days
  2;                                      !- Minimum Number of Warmup Days

OS:Sizing:Parameters,
  {dde5af6f-7923-4600-a28a-7556673a0266}, !- Handle
  1.25,                                   !- Heating Sizing Factor
  1.15;                                   !- Cooling Sizing Factor

OS:ProgramControl,
  {05027a99-f2b3-4aeb-afc6-1425fbb4371d}; !- Handle

OS:Timestep,
  {4ebc9f1e-4707-402e-9844-67eb1ffbd522}, !- Handle
  2;                                      !- Number of Timesteps per Hour

OS:OutputControl:ReportingTolerances,
  {65797aa2-06a9-45fe-b69d-bc6e060399d3}; !- Handle

OS:ConvergenceLimits,
  {9fc11aba-8822-4f3d-970c-46391ba4040d}; !- Handle

OS:ShadowCalculation,
  {ca758bea-4416-4626-9bba-3d8795c79bd6}, !- Handle
  7,                                      !- Calculation Frequency
  15000;                                  !- Maximum Figures in Shadow Overlap Calculations

OS:SurfaceConvectionAlgorithm:Inside,
  {aaabfc36-718a-4ab0-b622-f186ebb45230}, !- Handle
  TARP;                                   !- Algorithm

OS:SurfaceConvectionAlgorithm:Outside,
  {9a0a9f6f-4bbd-4b12-a121-9492a1fcd7d6}, !- Handle
  DOE-2;                                  !- Algorithm

OS:HeatBalanceAlgorithm,
  {9d93e563-e1e0-46d7-9e39-d1c8aceb7212}, !- Handle
  ConductionTransferFunction,             !- Algorithm
  200;                                    !- Surface Temperature Upper Limit {F}

OS:ZoneAirHeatBalanceAlgorithm,
  {8520d93e-310f-4696-9bcd-36228bfdd743}, !- Handle
  AnalyticalSolution;                     !- Algorithm

OS:ZoneAirContaminantBalance,
  {eb5fc3ae-fb22-4160-8fcb-3e3b22b000d3}; !- Handle

OS:ZoneCapacitanceMultiplier:ResearchSpecial,
  {4020ce4f-5a7a-4849-8028-8305d7b751b1}, !- Handle
  ,                                       !- Temperature Capacity Multiplier
  ,                                       !- Humidity Capacity Multiplier
  ;                                       !- Carbon Dioxide Capacity Multiplier

OS:RunPeriod,
  {28df894d-6af9-4fb8-8f56-df1753344aa3}, !- Handle
  Run Period 1,                           !- Name
  1,                                      !- Begin Month
  1,                                      !- Begin Day of Month
  12,                                     !- End Month
  31,                                     !- End Day of Month
  ,                                       !- Use Weather File Holidays and Special Days
  ,                                       !- Use Weather File Daylight Saving Period
  ,                                       !- Apply Weekend Holiday Rule
  ,                                       !- Use Weather File Rain Indicators
  ,                                       !- Use Weather File Snow Indicators
  ;                                       !- Number of Times Runperiod to be Repeated

OS:Building,
  {bf305633-c5a1-4881-9edf-ca5e1a8e1274}, !- Handle
  Building 1,                             !- Name
  ,                                       !- Building Sector Type
  ,                                       !- North Axis {deg}
  ,                                       !- Nominal Floor to Floor Height {m}
  ,                                       !- Space Type Name
  ,                                       !- Default Construction Set Name
  {77e4b05b-ae6d-4bab-ad61-8142503a5fa2}, !- Default Schedule Set Name
  ,                                       !- Standards Number of Stories
  ,                                       !- Standards Number of Above Ground Stories
  FullServiceRestaurant;                  !- Standards Building Type

OS:LifeCycleCost:Parameters,
  {231cf8a0-f0e7-4251-a99f-11f0d464e661}, !- Handle
  FEMP,                                   !- Analysis Type
  ,                                       !- Discounting Convention
  ,                                       !- Inflation Approach
  ,                                       !- Real Discount Rate
  ,                                       !- Nominal Discount Rate
  ,                                       !- Inflation
  ,                                       !- Base Date Month
  ,                                       !- Base Date Year
  ,                                       !- Service Date Month
  ,                                       !- Service Date Year
  ,                                       !- Length of Study Period in Years
  ,                                       !- Tax Rate
  ,                                       !- Depreciation Method
  Yes;                                    !- Use NIST Fuel Escalation Rates

OS:Facility,
  {3ba8e45b-b833-44eb-a723-ea6c3946dc96}; !- Handle

OS:SpaceType,
  {44146cdc-c7fb-4b62-bd56-0f7485ab407f}, !- Handle
  FullServiceRestaurant|Dining|DOE Ref 1980-2004|ASHRAE 169-2006-5A, !- Name
  {d3d86047-16cb-49f7-9a94-4c90e757f74a}, !- Default Construction Set Name
  {5e10d7b6-792a-4785-a01b-a5bea9040642}, !- Default Schedule Set Name
  {cff4ba93-bcbe-4b05-9e8a-5b555b193706}, !- Group Rendering Name
  {8e53789b-6ef2-4dbd-93ad-37560201ba23}, !- Design Specification Outdoor Air Object Name
  FullServiceRestaurant,                  !- Standards Building Type
  Dining;                                 !- Standards Space Type

OS:Rendering:Color,
  {cff4ba93-bcbe-4b05-9e8a-5b555b193706}, !- Handle
  Rendering Color 1,                      !- Name
  31,                                     !- Rendering Red Value
  169,                                    !- Rendering Green Value
  34;                                     !- Rendering Blue Value

OS:SpaceType,
  {7bfc9f20-138e-4622-a52a-72c634b227ed}, !- Handle
  FullServiceRestaurant|Kitchen|DOE Ref 1980-2004|ASHRAE 169-2006-5A, !- Name
  {d3d86047-16cb-49f7-9a94-4c90e757f74a}, !- Default Construction Set Name
  {299b98db-2c89-4dbc-afb5-522ab6e260db}, !- Default Schedule Set Name
  {673b3dc8-3bc6-4177-a381-ff40d20e6808}, !- Group Rendering Name
  {a9f95966-11e7-4969-b9bc-66fcdad48f6e}, !- Design Specification Outdoor Air Object Name
  FullServiceRestaurant,                  !- Standards Building Type
  Kitchen;                                !- Standards Space Type

OS:Rendering:Color,
  {673b3dc8-3bc6-4177-a381-ff40d20e6808}, !- Handle
  Rendering Color 2,                      !- Name
  78,                                     !- Rendering Red Value
  222,                                    !- Rendering Green Value
  133;                                    !- Rendering Blue Value

OS:Schedule:Ruleset,
  {80a8381c-f3a8-496a-81c0-731d747f94db}, !- Handle
  0700|2300|FullServiceRestaurant|default|hoo, !- Name
  {86a7abb7-4213-43a9-9cdc-d1e49e0741a4}, !- Schedule Type Limits Name
  {4c852c46-e540-49ce-833c-6a4f11a7eacd}, !- Default Day Schedule Name
  {910aa2e0-3148-4a29-9aa9-362719e94576}, !- Summer Design Day Schedule Name
  {bde5b779-1b1d-4e00-a058-9d506204c999}; !- Winter Design Day Schedule Name

OS:Schedule:Day,
  {4c852c46-e540-49ce-833c-6a4f11a7eacd}, !- Handle
  0700|2300|FullServiceRestaurant|default|hoo Schedule Week Day, !- Name
  {86a7abb7-4213-43a9-9cdc-d1e49e0741a4}, !- Schedule Type Limits Name
  ,                                       !- Interpolate to Timestep
  7,                                      !- Hour 1
  0,                                      !- Minute 1
  0,                                      !- Value Until Time 1
  23,                                     !- Hour 2
  0,                                      !- Minute 2
  1,                                      !- Value Until Time 2
  24,                                     !- Hour 3
  0,                                      !- Minute 3
  0;                                      !- Value Until Time 3

OS:Schedule:Day,
  {69862d35-ce9a-4e56-90ab-7c19bbe92dc2}, !- Handle
  Schedule Day 2,                         !- Name
  ,                                       !- Schedule Type Limits Name
  ,                                       !- Interpolate to Timestep
  24,                                     !- Hour 1
  0,                                      !- Minute 1
  0;                                      !- Value Until Time 1

OS:Schedule:Day,
  {bde5b779-1b1d-4e00-a058-9d506204c999}, !- Handle
  0700|2300|FullServiceRestaurant|default|hoo Winter Design Day, !- Name
  {86a7abb7-4213-43a9-9cdc-d1e49e0741a4}, !- Schedule Type Limits Name
  ,                                       !- Interpolate to Timestep
  24,                                     !- Hour 1
  0,                                      !- Minute 1
  0;                                      !- Value Until Time 1

OS:Schedule:Day,
  {1d4c27c3-a092-4382-9e89-07628e4a962f}, !- Handle
  Schedule Day 3,                         !- Name
  ,                                       !- Schedule Type Limits Name
  ,                                       !- Interpolate to Timestep
  24,                                     !- Hour 1
  0,                                      !- Minute 1
  0;                                      !- Value Until Time 1

OS:Schedule:Day,
  {910aa2e0-3148-4a29-9aa9-362719e94576}, !- Handle
  0700|2300|FullServiceRestaurant|default|hoo Summer Design Day, !- Name
  {86a7abb7-4213-43a9-9cdc-d1e49e0741a4}, !- Schedule Type Limits Name
  ,                                       !- Interpolate to Timestep
  24,                                     !- Hour 1
  0,                                      !- Minute 1
  1;                                      !- Value Until Time 1

OS:DefaultScheduleSet,
  {77e4b05b-ae6d-4bab-ad61-8142503a5fa2}, !- Handle
  Building Hours of Operation,            !- Name
  {80a8381c-f3a8-496a-81c0-731d747f94db}, !- Hours of Operation Schedule Name
  ,                                       !- Number of People Schedule Name
  ,                                       !- People Activity Level Schedule Name
  ,                                       !- Lighting Schedule Name
  ,                                       !- Electric Equipment Schedule Name
  ,                                       !- Gas Equipment Schedule Name
  ,                                       !- Hot Water Equipment Schedule Name
  ,                                       !- Infiltration Schedule Name
  ,                                       !- Steam Equipment Schedule Name
  ;                                       !- Other Equipment Schedule Name

OS:ScheduleTypeLimits,
  {86a7abb7-4213-43a9-9cdc-d1e49e0741a4}, !- Handle
  OnOff,                                  !- Name
  0,                                      !- Lower Limit Value {BasedOnField A4}
  1,                                      !- Upper Limit Value {BasedOnField A4}
  Discrete,                               !- Numeric Type
  Availability;                           !- Unit Type

OS:Schedule:Ruleset,
  {78700b2b-8c84-491a-9efd-e676b149b5f3}, !- Handle
  0700|2300|FullServiceRestaurant|default|activity, !- Name
  {bca37ffc-ba2a-4c28-9f36-aaeee0493ae9}, !- Schedule Type Limits Name
  {9b943d70-8a3a-49e5-9a50-08226d2187e3}, !- Default Day Schedule Name
  {42f2f77d-71ef-47b3-a5b7-8833e2ebe1b7}, !- Summer Design Day Schedule Name
  {d39196a4-cc5c-4087-be24-15c6bebe7c04}; !- Winter Design Day Schedule Name

OS:ScheduleTypeLimits,
  {bca37ffc-ba2a-4c28-9f36-aaeee0493ae9}, !- Handle
  People Activity Type Limits,            !- Name
  0,                                      !- Lower Limit Value {BasedOnField A4}
  ,                                       !- Upper Limit Value {BasedOnField A4}
  Continuous,                             !- Numeric Type
  ActivityLevel;                          !- Unit Type

OS:Schedule:Day,
  {9b943d70-8a3a-49e5-9a50-08226d2187e3}, !- Handle
  0700|2300|FullServiceRestaurant|default|activity |default, !- Name
  {bca37ffc-ba2a-4c28-9f36-aaeee0493ae9}, !- Schedule Type Limits Name
  ,                                       !- Interpolate to Timestep
  24,                                     !- Hour 1
  0,                                      !- Minute 1
  120;                                    !- Value Until Time 1

OS:Schedule:Day,
  {42f2f77d-71ef-47b3-a5b7-8833e2ebe1b7}, !- Handle
  0700|2300|FullServiceRestaurant|default|activity Summer Design Day, !- Name
  {bca37ffc-ba2a-4c28-9f36-aaeee0493ae9}, !- Schedule Type Limits Name
  ,                                       !- Interpolate to Timestep
  24,                                     !- Hour 1
  0,                                      !- Minute 1
  120;                                    !- Value Until Time 1

OS:Schedule:Day,
  {d39196a4-cc5c-4087-be24-15c6bebe7c04}, !- Handle
  0700|2300|FullServiceRestaurant|default|activity Winter Design Day, !- Name
  {bca37ffc-ba2a-4c28-9f36-aaeee0493ae9}, !- Schedule Type Limits Name
  ,                                       !- Interpolate to Timestep
  24,                                     !- Hour 1
  0,                                      !- Minute 1
  120;                                    !- Value Until Time 1

OS:Schedule:Ruleset,
  {0085543a-de2a-4b28-887a-ce6bdd3f2c5b}, !- Handle
  0700|2300|FullServiceRestaurant|Kitchen|htg_setpoint, !- Name
  {04e84199-28fb-402f-832d-a73fb0a0a0fa}, !- Schedule Type Limits Name
  {61b734a3-84a2-4b2e-aa4c-20ad036ef8cb}, !- Default Day Schedule Name
  {ae574188-e9ee-445b-8ec2-a67c0bdf4e62}, !- Summer Design Day Schedule Name
  {6cc00868-a0ad-4350-ba43-15f8560b6d0e}; !- Winter Design Day Schedule Name

OS:ScheduleTypeLimits,
  {04e84199-28fb-402f-832d-a73fb0a0a0fa}, !- Handle
  Thermostat Heating Setpoint Schedule Type Limits, !- Name
  0,                                      !- Lower Limit Value {BasedOnField A4}
  100,                                    !- Upper Limit Value {BasedOnField A4}
  Continuous,                             !- Numeric Type
  Temperature;                            !- Unit Type

OS:Schedule:Day,
  {61b734a3-84a2-4b2e-aa4c-20ad036ef8cb}, !- Handle
  0700|2300|FullServiceRestaurant|Kitchen|htg_setpoint |default, !- Name
  {04e84199-28fb-402f-832d-a73fb0a0a0fa}, !- Schedule Type Limits Name
  ,                                       !- Interpolate to Timestep
  24,                                     !- Hour 1
  0,                                      !- Minute 1
  19.0000000000001;                       !- Value Until Time 1

OS:Schedule:Day,
  {ae574188-e9ee-445b-8ec2-a67c0bdf4e62}, !- Handle
  0700|2300|FullServiceRestaurant|Kitchen|htg_setpoint Summer Design Day, !- Name
  {04e84199-28fb-402f-832d-a73fb0a0a0fa}, !- Schedule Type Limits Name
  ,                                       !- Interpolate to Timestep
  24,                                     !- Hour 1
  0,                                      !- Minute 1
  19.0000000000001;                       !- Value Until Time 1

OS:Schedule:Day,
  {6cc00868-a0ad-4350-ba43-15f8560b6d0e}, !- Handle
  0700|2300|FullServiceRestaurant|Kitchen|htg_setpoint Winter Design Day, !- Name
  {04e84199-28fb-402f-832d-a73fb0a0a0fa}, !- Schedule Type Limits Name
  ,                                       !- Interpolate to Timestep
  24,                                     !- Hour 1
  0,                                      !- Minute 1
  19.0000000000001;                       !- Value Until Time 1

OS:Schedule:Ruleset,
  {17ad265e-44fa-4d02-9dc5-dedc5691b121}, !- Handle
  0700|2300|FullServiceRestaurant|Kitchen|clg_setpoint, !- Name
  {eee9148d-c731-4cc9-936b-bfe8f5d3572c}, !- Schedule Type Limits Name
  {1cb77fbe-7c1d-44f2-9ce8-4840d3f7049c}, !- Default Day Schedule Name
  {c4a0dc8d-68ad-45be-bd02-6861cf038cd0}, !- Summer Design Day Schedule Name
  {75a6f4ef-b953-4bfa-94c2-46a5af57f9fe}; !- Winter Design Day Schedule Name

OS:ScheduleTypeLimits,
  {eee9148d-c731-4cc9-936b-bfe8f5d3572c}, !- Handle
  Thermostat Cooling Setpoint Schedule Type Limits, !- Name
  0,                                      !- Lower Limit Value {BasedOnField A4}
  100,                                    !- Upper Limit Value {BasedOnField A4}
  Continuous,                             !- Numeric Type
  Temperature;                            !- Unit Type

OS:Schedule:Day,
  {1cb77fbe-7c1d-44f2-9ce8-4840d3f7049c}, !- Handle
  0700|2300|FullServiceRestaurant|Kitchen|clg_setpoint |default, !- Name
  {eee9148d-c731-4cc9-936b-bfe8f5d3572c}, !- Schedule Type Limits Name
  ,                                       !- Interpolate to Timestep
  24,                                     !- Hour 1
  0,                                      !- Minute 1
  26.0000000000001;                       !- Value Until Time 1

OS:Schedule:Day,
  {c4a0dc8d-68ad-45be-bd02-6861cf038cd0}, !- Handle
  0700|2300|FullServiceRestaurant|Kitchen|clg_setpoint Summer Design Day, !- Name
  {eee9148d-c731-4cc9-936b-bfe8f5d3572c}, !- Schedule Type Limits Name
  ,                                       !- Interpolate to Timestep
  24,                                     !- Hour 1
  0,                                      !- Minute 1
  26.0000000000001;                       !- Value Until Time 1

OS:Schedule:Day,
  {75a6f4ef-b953-4bfa-94c2-46a5af57f9fe}, !- Handle
  0700|2300|FullServiceRestaurant|Kitchen|clg_setpoint Winter Design Day, !- Name
  {eee9148d-c731-4cc9-936b-bfe8f5d3572c}, !- Schedule Type Limits Name
  ,                                       !- Interpolate to Timestep
  24,                                     !- Hour 1
  0,                                      !- Minute 1
  26.0000000000001;                       !- Value Until Time 1

OS:Schedule:Ruleset,
  {1e5c5948-93b2-4fad-8315-6da2692e42b1}, !- Handle
  0700|2300|FullServiceRestaurant|default|occ, !- Name
  {278624a5-df7f-4d60-9197-583d1b6865da}, !- Schedule Type Limits Name
  {c80d86de-2ac9-452b-8aea-44446f7b83b4}, !- Default Day Schedule Name
  {9f8e1608-4bc4-4cae-adf8-d897852a3c30}, !- Summer Design Day Schedule Name
  {4c7886a1-49bc-4660-9403-bedc6f3da4b9}; !- Winter Design Day Schedule Name

OS:ScheduleTypeLimits,
  {278624a5-df7f-4d60-9197-583d1b6865da}, !- Handle
  Occupancy Schedule Type Limits,         !- Name
  0,                                      !- Lower Limit Value {BasedOnField A4}
  1,                                      !- Upper Limit Value {BasedOnField A4}
  Continuous,                             !- Numeric Type
  Dimensionless;                          !- Unit Type

OS:Schedule:Day,
  {c80d86de-2ac9-452b-8aea-44446f7b83b4}, !- Handle
  0700|2300|FullServiceRestaurant|default|occ |default, !- Name
  {278624a5-df7f-4d60-9197-583d1b6865da}, !- Schedule Type Limits Name
  ,                                       !- Interpolate to Timestep
  1,                                      !- Hour 1
  0,                                      !- Minute 1
  0.05,                                   !- Value Until Time 1
  5,                                      !- Hour 2
  0,                                      !- Minute 2
  0,                                      !- Value Until Time 2
  6,                                      !- Hour 3
  0,                                      !- Minute 3
  0.05,                                   !- Value Until Time 3
  7,                                      !- Hour 4
  0,                                      !- Minute 4
  0.1,                                    !- Value Until Time 4
  10,                                     !- Hour 5
  0,                                      !- Minute 5
  0.4,                                    !- Value Until Time 5
  11,                                     !- Hour 6
  0,                                      !- Minute 6
  0.2,                                    !- Value Until Time 6
  12,                                     !- Hour 7
  0,                                      !- Minute 7
  0.5,                                    !- Value Until Time 7
  13,                                     !- Hour 8
  0,                                      !- Minute 8
  0.8,                                    !- Value Until Time 8
  14,                                     !- Hour 9
  0,                                      !- Minute 9
  0.7,                                    !- Value Until Time 9
  15,                                     !- Hour 10
  0,                                      !- Minute 10
  0.4,                                    !- Value Until Time 10
  16,                                     !- Hour 11
  0,                                      !- Minute 11
  0.2,                                    !- Value Until Time 11
  17,                                     !- Hour 12
  0,                                      !- Minute 12
  0.25,                                   !- Value Until Time 12
  18,                                     !- Hour 13
  0,                                      !- Minute 13
  0.5,                                    !- Value Until Time 13
  21,                                     !- Hour 14
  0,                                      !- Minute 14
  0.8,                                    !- Value Until Time 14
  22,                                     !- Hour 15
  0,                                      !- Minute 15
  0.5,                                    !- Value Until Time 15
  23,                                     !- Hour 16
  0,                                      !- Minute 16
  0.35,                                   !- Value Until Time 16
  24,                                     !- Hour 17
  0,                                      !- Minute 17
  0.2;                                    !- Value Until Time 17

OS:Schedule:Day,
  {9f8e1608-4bc4-4cae-adf8-d897852a3c30}, !- Handle
  0700|2300|FullServiceRestaurant|default|occ Summer Design Day, !- Name
  {278624a5-df7f-4d60-9197-583d1b6865da}, !- Schedule Type Limits Name
  ,                                       !- Interpolate to Timestep
  1,                                      !- Hour 1
  0,                                      !- Minute 1
  0.05,                                   !- Value Until Time 1
  5,                                      !- Hour 2
  0,                                      !- Minute 2
  0,                                      !- Value Until Time 2
  6,                                      !- Hour 3
  0,                                      !- Minute 3
  0.05,                                   !- Value Until Time 3
  7,                                      !- Hour 4
  0,                                      !- Minute 4
  0.1,                                    !- Value Until Time 4
  10,                                     !- Hour 5
  0,                                      !- Minute 5
  1,                                      !- Value Until Time 5
  11,                                     !- Hour 6
  0,                                      !- Minute 6
  0.2,                                    !- Value Until Time 6
  15,                                     !- Hour 7
  0,                                      !- Minute 7
  1,                                      !- Value Until Time 7
  16,                                     !- Hour 8
  0,                                      !- Minute 8
  0.2,                                    !- Value Until Time 8
  17,                                     !- Hour 9
  0,                                      !- Minute 9
  0.25,                                   !- Value Until Time 9
  23,                                     !- Hour 10
  0,                                      !- Minute 10
  1,                                      !- Value Until Time 10
  24,                                     !- Hour 11
  0,                                      !- Minute 11
  0.2;                                    !- Value Until Time 11

OS:Schedule:Day,
  {4c7886a1-49bc-4660-9403-bedc6f3da4b9}, !- Handle
  0700|2300|FullServiceRestaurant|default|occ Winter Design Day, !- Name
  {278624a5-df7f-4d60-9197-583d1b6865da}, !- Schedule Type Limits Name
  ,                                       !- Interpolate to Timestep
  24,                                     !- Hour 1
  0,                                      !- Minute 1
  0;                                      !- Value Until Time 1

OS:Schedule:Rule,
  {62bbf8e7-1518-4d0f-a6f6-d50753c99840}, !- Handle
  0700|2300|FullServiceRestaurant|default|occ |1/1-12/31|Sat Rule, !- Name
  {1e5c5948-93b2-4fad-8315-6da2692e42b1}, !- Schedule Ruleset Name
  0,                                      !- Rule Order
  {4f5a7af5-702d-4cba-a8b1-989ac1f62fee}, !- Day Schedule Name
  ,                                       !- Apply Sunday
  ,                                       !- Apply Monday
  ,                                       !- Apply Tuesday
  ,                                       !- Apply Wednesday
  ,                                       !- Apply Thursday
  ,                                       !- Apply Friday
  Yes,                                    !- Apply Saturday
  ,                                       !- Apply Holiday
  DateRange,                              !- Date Specification Type
  1,                                      !- Start Month
  1,                                      !- Start Day
  12,                                     !- End Month
  31;                                     !- End Day

OS:Schedule:Day,
  {4f5a7af5-702d-4cba-a8b1-989ac1f62fee}, !- Handle
  0700|2300|FullServiceRestaurant|default|occ |1/1-12/31|Sat, !- Name
  {278624a5-df7f-4d60-9197-583d1b6865da}, !- Schedule Type Limits Name
  ,                                       !- Interpolate to Timestep
  1,                                      !- Hour 1
  0,                                      !- Minute 1
  0.05,                                   !- Value Until Time 1
  6,                                      !- Hour 2
  0,                                      !- Minute 2
  0,                                      !- Value Until Time 2
  7,                                      !- Hour 3
  0,                                      !- Minute 3
  0.05,                                   !- Value Until Time 3
  9,                                      !- Hour 4
  0,                                      !- Minute 4
  0.5,                                    !- Value Until Time 4
  10,                                     !- Hour 5
  0,                                      !- Minute 5
  0.4,                                    !- Value Until Time 5
  11,                                     !- Hour 6
  0,                                      !- Minute 6
  0.2,                                    !- Value Until Time 6
  12,                                     !- Hour 7
  0,                                      !- Minute 7
  0.45,                                   !- Value Until Time 7
  14,                                     !- Hour 8
  0,                                      !- Minute 8
  0.5,                                    !- Value Until Time 8
  15,                                     !- Hour 9
  0,                                      !- Minute 9
  0.35,                                   !- Value Until Time 9
  18,                                     !- Hour 10
  0,                                      !- Minute 10
  0.3,                                    !- Value Until Time 10
  19,                                     !- Hour 11
  0,                                      !- Minute 11
  0.7,                                    !- Value Until Time 11
  20,                                     !- Hour 12