
OS:Version,
  {af6f70a9-5246-4517-8b9a-839d72e90654}, !- Handle
  1.6.0;                                  !- Version Identifier

OS:ClimateZones,
  {135edfab-17e7-40db-a436-27d385a8cd6d}, !- Handle
  ,                                       !- Active Institution
  ,                                       !- Active Year
  ASHRAE,                                 !- Climate Zone Institution Name 1
  ANSI/ASHRAE Standard 169,               !- Climate Zone Document Name 1
  2006,                                   !- Climate Zone Document Year 1
  ,                                       !- Climate Zone Value 1
  CEC,                                    !- Climate Zone Institution Name 2
  California Climate Zone Descriptions,   !- Climate Zone Document Name 2
  1995,                                   !- Climate Zone Document Year 2
  ;                                       !- Climate Zone Value 2

OS:YearDescription,
  {513d8dda-86cb-442a-b01c-1f7f0e0ac70e}; !- Handle

OS:RadianceParameters,
  {270a96f1-3c86-4b75-a667-cdf22790e2c8}, !- Handle
  1,                                      !- Accumulated Rays per Record
  0,                                      !- Direct Threshold
  1,                                      !- Direct Certainty
  1,                                      !- Direct Jitter
  1,                                      !- Direct Pretest
  6,                                      !- Ambient Bounces VMX
  2,                                      !- Ambient Bounces DMX
  4050,                                   !- Ambient Divisions VMX
  512,                                    !- Ambient Divisions DMX
  256,                                    !- Ambient Supersamples
  0.001,                                  !- Limit Weight VMX
  0.001,                                  !- Limit Weight DMX
  500,                                    !- Klems Sampling Density
  146;                                    !- Sky Discretization Resolution

OS:SimulationControl,
  {2c487a4c-bac9-4ac5-b669-1e49d9da7c2b}, !- Handle
  ,                                       !- Do Zone Sizing Calculation
  ,                                       !- Do System Sizing Calculation
  ,                                       !- Do Plant Sizing Calculation
  No,                                     !- Run Simulation for Sizing Periods
  ,                                       !- Run Simulation for Weather File Run Periods
  0.04,                                   !- Loads Convergence Tolerance Value
  ,                                       !- Temperature Convergence Tolerance Value {deltaC}
  ,                                       !- Solar Distribution
  ,                                       !- Maximum Number of Warmup Days
  2;                                      !- Minimum Number of Warmup Days

OS:Sizing:Parameters,
  {dde5af6f-7923-4600-a28a-7556673a0266}, !- Handle
  1.25,                                   !- Heating Sizing Factor
  1.15;                                   !- Cooling Sizing Factor

OS:ProgramControl,
  {05027a99-f2b3-4aeb-afc6-1425fbb4371d}; !- Handle

OS:Timestep,
  {4ebc9f1e-4707-402e-9844-67eb1ffbd522}, !- Handle
  2;                                      !- Number of Timesteps per Hour

OS:OutputControl:ReportingTolerances,
  {65797aa2-06a9-45fe-b69d-bc6e060399d3}; !- Handle

OS:ConvergenceLimits,
  {9fc11aba-8822-4f3d-970c-46391ba4040d}; !- Handle

OS:ShadowCalculation,
  {ca758bea-4416-4626-9bba-3d8795c79bd6}, !- Handle
  7,                                      !- Calculation Frequency
  15000;                                  !- Maximum Figures in Shadow Overlap Calculations

OS:SurfaceConvectionAlgorithm:Inside,
  {aaabfc36-718a-4ab0-b622-f186ebb45230}, !- Handle
  TARP;                                   !- Algorithm

OS:SurfaceConvectionAlgorithm:Outside,
  {9a0a9f6f-4bbd-4b12-a121-9492a1fcd7d6}, !- Handle
  DOE-2;                                  !- Algorithm

OS:HeatBalanceAlgorithm,
  {9d93e563-e1e0-46d7-9e39-d1c8aceb7212}, !- Handle
  ConductionTransferFunction,             !- Algorithm
  200;                                    !- Surface Temperature Upper Limit {F}

OS:ZoneAirHeatBalanceAlgorithm,
  {8520d93e-310f-4696-9bcd-36228bfdd743}, !- Handle
  AnalyticalSolution;                     !- Algorithm

OS:ZoneAirContaminantBalance,
  {eb5fc3ae-fb22-4160-8fcb-3e3b22b000d3}; !- Handle

OS:ZoneCapacitanceMultiplier:ResearchSpecial,
  {4020ce4f-5a7a-4849-8028-8305d7b751b1}, !- Handle
  ,                                       !- Temperature Capacity Multiplier
  ,                                       !- Humidity Capacity Multiplier
  ;                                       !- Carbon Dioxide Capacity Multiplier

OS:RunPeriod,
  {28df894d-6af9-4fb8-8f56-df1753344aa3}, !- Handle
  Run Period 1,                           !- Name
  1,                                      !- Begin Month
  1,                                      !- Begin Day of Month
  12,                                     !- End Month
  31,                                     !- End Day of Month
  ,                                       !- Use Weather File Holidays and Special Days
  ,                                       !- Use Weather File Daylight Saving Period
  ,                                       !- Apply Weekend Holiday Rule
  ,                                       !- Use Weather File Rain Indicators
  ,                                       !- Use Weather File Snow Indicators
  ;                                       !- Number of Times Runperiod to be Repeated

OS:Building,
  {bf305633-c5a1-4881-9edf-ca5e1a8e1274}, !- Handle
  Building 1,                             !- Name
  ,                                       !- Building Sector Type
  ,                                       !- North Axis {deg}
  ,                                       !- Nominal Floor to Floor Height {m}
  ,                                       !- Space Type Name
  ,                                       !- Default Construction Set Name
  {75e2fcd3-bab7-4c9b-877c-8a22f5f6073f}, !- Default Schedule Set Name
  ,                                       !- Standards Number of Stories
  ,                                       !- Standards Number of Above Ground Stories
  FullServiceRestaurant;                  !- Standards Building Type

OS:LifeCycleCost:Parameters,
  {231cf8a0-f0e7-4251-a99f-11f0d464e661}, !- Handle
  FEMP,                                   !- Analysis Type
  ,                                       !- Discounting Convention
  ,                                       !- Inflation Approach
  ,                                       !- Real Discount Rate
  ,                                       !- Nominal Discount Rate
  ,                                       !- Inflation
  ,                                       !- Base Date Month
  ,                                       !- Base Date Year
  ,                                       !- Service Date Month
  ,                                       !- Service Date Year
  ,                                       !- Length of Study Period in Years
  ,                                       !- Tax Rate
  ,                                       !- Depreciation Method
  Yes;                                    !- Use NIST Fuel Escalation Rates

OS:Facility,
  {3ba8e45b-b833-44eb-a723-ea6c3946dc96}; !- Handle

OS:SpaceType,
  {79010782-28fa-4b11-b519-9ead6ba596f0}, !- Handle
  FullServiceRestaurant|Dining|DOE Ref 2004|ASHRAE 169-2006-5A, !- Name
  {d832b42a-43d0-47a0-8665-9ecc3fd53cb1}, !- Default Construction Set Name
  {f6d98495-1658-44db-b5bf-be81836718f1}, !- Default Schedule Set Name
  {6a0dc705-1c66-4b27-afe0-e2f06ae38002}, !- Group Rendering Name
  {b949ab65-ad66-4ab1-8a47-58d8d8e9f3c3}, !- Design Specification Outdoor Air Object Name
  FullServiceRestaurant,                  !- Standards Building Type
  Dining;                                 !- Standards Space Type

OS:Rendering:Color,
  {6a0dc705-1c66-4b27-afe0-e2f06ae38002}, !- Handle
  Rendering Color 1,                      !- Name
  31,                                     !- Rendering Red Value
  169,                                    !- Rendering Green Value
  34;                                     !- Rendering Blue Value

OS:SpaceType,
  {daf6bdc5-fa60-4d27-9734-ae8c1351835e}, !- Handle
  FullServiceRestaurant|Kitchen|DOE Ref 2004|ASHRAE 169-2006-5A, !- Name
  {d832b42a-43d0-47a0-8665-9ecc3fd53cb1}, !- Default Construction Set Name
  {4dbffb7c-b54b-4ea3-966a-cd54a2cf412e}, !- Default Schedule Set Name
  {eb24961c-631a-45d6-9a02-1e3cc20d0889}, !- Group Rendering Name
  {9129be0a-74cf-4256-b809-33cce608eedd}, !- Design Specification Outdoor Air Object Name
  FullServiceRestaurant,                  !- Standards Building Type
  Kitchen;                                !- Standards Space Type

OS:Rendering:Color,
  {eb24961c-631a-45d6-9a02-1e3cc20d0889}, !- Handle
  Rendering Color 2,                      !- Name
  78,                                     !- Rendering Red Value
  222,                                    !- Rendering Green Value
  133;                                    !- Rendering Blue Value

OS:Schedule:Ruleset,
  {ac54281f-b921-477d-8be9-ce1cabbdf0d0}, !- Handle
  0700|2300|FullServiceRestaurant|default|hoo, !- Name
  {d8f1bae2-ac41-4342-b7ae-cded45c26317}, !- Schedule Type Limits Name
  {feaa28c7-9cd9-4eb9-8a4d-98e64c76c8c7}, !- Default Day Schedule Name
  {43e4ccf1-6339-47c9-bbac-5185569e339d}, !- Summer Design Day Schedule Name
  {961f99a0-8701-4dc3-a394-a05939b1f5fa}; !- Winter Design Day Schedule Name

OS:Schedule:Day,
  {feaa28c7-9cd9-4eb9-8a4d-98e64c76c8c7}, !- Handle
  0700|2300|FullServiceRestaurant|default|hoo Schedule Week Day, !- Name
  {d8f1bae2-ac41-4342-b7ae-cded45c26317}, !- Schedule Type Limits Name
  ,                                       !- Interpolate to Timestep
  7,                                      !- Hour 1
  0,                                      !- Minute 1
  0,                                      !- Value Until Time 1
  23,                                     !- Hour 2
  0,                                      !- Minute 2
  1,                                      !- Value Until Time 2
  24,                                     !- Hour 3
  0,                                      !- Minute 3
  0;                                      !- Value Until Time 3

OS:Schedule:Day,
  {c878a020-06ec-44fc-b0a2-f6ba6bcb5cde}, !- Handle
  Schedule Day 2,                         !- Name
  ,                                       !- Schedule Type Limits Name
  ,                                       !- Interpolate to Timestep
  24,                                     !- Hour 1
  0,                                      !- Minute 1
  0;                                      !- Value Until Time 1

OS:Schedule:Day,
  {961f99a0-8701-4dc3-a394-a05939b1f5fa}, !- Handle
  0700|2300|FullServiceRestaurant|default|hoo Winter Design Day, !- Name
  {d8f1bae2-ac41-4342-b7ae-cded45c26317}, !- Schedule Type Limits Name
  ,                                       !- Interpolate to Timestep
  24,                                     !- Hour 1
  0,                                      !- Minute 1
  0;                                      !- Value Until Time 1

OS:Schedule:Day,
  {5833ebf2-d2e5-45c2-b97c-3cd73ba06ad2}, !- Handle
  Schedule Day 3,                         !- Name
  ,                                       !- Schedule Type Limits Name
  ,                                       !- Interpolate to Timestep
  24,                                     !- Hour 1
  0,                                      !- Minute 1
  0;                                      !- Value Until Time 1

OS:Schedule:Day,
  {43e4ccf1-6339-47c9-bbac-5185569e339d}, !- Handle
  0700|2300|FullServiceRestaurant|default|hoo Summer Design Day, !- Name
  {d8f1bae2-ac41-4342-b7ae-cded45c26317}, !- Schedule Type Limits Name
  ,                                       !- Interpolate to Timestep
  24,                                     !- Hour 1
  0,                                      !- Minute 1
  1;                                      !- Value Until Time 1

OS:DefaultScheduleSet,
  {75e2fcd3-bab7-4c9b-877c-8a22f5f6073f}, !- Handle
  Building Hours of Operation,            !- Name
  {ac54281f-b921-477d-8be9-ce1cabbdf0d0}, !- Hours of Operation Schedule Name
  ,                                       !- Number of People Schedule Name
  ,                                       !- People Activity Level Schedule Name
  ,                                       !- Lighting Schedule Name
  ,                                       !- Electric Equipment Schedule Name
  ,                                       !- Gas Equipment Schedule Name
  ,                                       !- Hot Water Equipment Schedule Name
  ,                                       !- Infiltration Schedule Name
  ,                                       !- Steam Equipment Schedule Name
  ;                                       !- Other Equipment Schedule Name

OS:ScheduleTypeLimits,
  {d8f1bae2-ac41-4342-b7ae-cded45c26317}, !- Handle
  OnOff,                                  !- Name
  0,                                      !- Lower Limit Value {BasedOnField A4}
  1,                                      !- Upper Limit Value {BasedOnField A4}
  Discrete,                               !- Numeric Type
  Availability;                           !- Unit Type

OS:Schedule:Ruleset,
  {42dcf199-8089-4504-b3f6-7891dad0268a}, !- Handle
  0700|2300|FullServiceRestaurant|default|activity, !- Name
  {3f450414-fd15-4831-b351-34e3cc24c463}, !- Schedule Type Limits Name
  {593623cd-0ee9-4033-8f4e-d2027dd5f6d0}, !- Default Day Schedule Name
  {4b351fe9-835b-4f16-905e-4ed05a9d45fa}, !- Summer Design Day Schedule Name
  {3947fdd3-615b-4dc5-87dc-474a70673aff}; !- Winter Design Day Schedule Name

OS:ScheduleTypeLimits,
  {3f450414-fd15-4831-b351-34e3cc24c463}, !- Handle
  People Activity Type Limits,            !- Name
  0,                                      !- Lower Limit Value {BasedOnField A4}
  ,                                       !- Upper Limit Value {BasedOnField A4}
  Continuous,                             !- Numeric Type
  ActivityLevel;                          !- Unit Type

OS:Schedule:Day,
  {593623cd-0ee9-4033-8f4e-d2027dd5f6d0}, !- Handle
  0700|2300|FullServiceRestaurant|default|activity |default, !- Name
  {3f450414-fd15-4831-b351-34e3cc24c463}, !- Schedule Type Limits Name
  ,                                       !- Interpolate to Timestep
  24,                                     !- Hour 1
  0,                                      !- Minute 1
  120;                                    !- Value Until Time 1

OS:Schedule:Day,
  {4b351fe9-835b-4f16-905e-4ed05a9d45fa}, !- Handle
  0700|2300|FullServiceRestaurant|default|activity Summer Design Day, !- Name
  {3f450414-fd15-4831-b351-34e3cc24c463}, !- Schedule Type Limits Name
  ,                                       !- Interpolate to Timestep
  24,                                     !- Hour 1
  0,                                      !- Minute 1
  120;                                    !- Value Until Time 1

OS:Schedule:Day,
  {3947fdd3-615b-4dc5-87dc-474a70673aff}, !- Handle
  0700|2300|FullServiceRestaurant|default|activity Winter Design Day, !- Name
  {3f450414-fd15-4831-b351-34e3cc24c463}, !- Schedule Type Limits Name
  ,                                       !- Interpolate to Timestep
  24,                                     !- Hour 1
  0,                                      !- Minute 1
  120;                                    !- Value Until Time 1

OS:Schedule:Ruleset,
  {94d9d58d-ab56-48c8-96ea-76bef5145b6c}, !- Handle
  0700|2300|FullServiceRestaurant|Kitchen|htg_setpoint, !- Name
  {4b8dcf32-cad2-4cb5-88c3-3be1ddee09d7}, !- Schedule Type Limits Name
  {353e651f-d890-455e-b0da-ab954e04cfcd}, !- Default Day Schedule Name
  {6ad12c2a-bc54-41ea-ac2a-3f46f2eeae2e}, !- Summer Design Day Schedule Name
  {52b53d8f-8eb6-4671-8b1d-9ffa959ed2a3}; !- Winter Design Day Schedule Name

OS:ScheduleTypeLimits,
  {4b8dcf32-cad2-4cb5-88c3-3be1ddee09d7}, !- Handle
  Thermostat Heating Setpoint Schedule Type Limits, !- Name
  0,                                      !- Lower Limit Value {BasedOnField A4}
  100,                                    !- Upper Limit Value {BasedOnField A4}
  Continuous,                             !- Numeric Type
  Temperature;                            !- Unit Type

OS:Schedule:Day,
  {353e651f-d890-455e-b0da-ab954e04cfcd}, !- Handle
  0700|2300|FullServiceRestaurant|Kitchen|htg_setpoint |default, !- Name
  {4b8dcf32-cad2-4cb5-88c3-3be1ddee09d7}, !- Schedule Type Limits Name
  ,                                       !- Interpolate to Timestep
  24,                                     !- Hour 1
  0,                                      !- Minute 1
  19.0000000000001;                       !- Value Until Time 1

OS:Schedule:Day,
  {6ad12c2a-bc54-41ea-ac2a-3f46f2eeae2e}, !- Handle
  0700|2300|FullServiceRestaurant|Kitchen|htg_setpoint Summer Design Day, !- Name
  {4b8dcf32-cad2-4cb5-88c3-3be1ddee09d7}, !- Schedule Type Limits Name
  ,                                       !- Interpolate to Timestep
  24,                                     !- Hour 1
  0,                                      !- Minute 1
  19.0000000000001;                       !- Value Until Time 1

OS:Schedule:Day,
  {52b53d8f-8eb6-4671-8b1d-9ffa959ed2a3}, !- Handle
  0700|2300|FullServiceRestaurant|Kitchen|htg_setpoint Winter Design Day, !- Name
  {4b8dcf32-cad2-4cb5-88c3-3be1ddee09d7}, !- Schedule Type Limits Name
  ,                                       !- Interpolate to Timestep
  24,                                     !- Hour 1
  0,                                      !- Minute 1
  19.0000000000001;                       !- Value Until Time 1

OS:Schedule:Ruleset,
  {9b070cae-3cf5-4dc5-a510-bf21bd1f8227}, !- Handle
  0700|2300|FullServiceRestaurant|Kitchen|clg_setpoint, !- Name
  {3bb10511-744a-4724-adcf-7f9d303a1c8c}, !- Schedule Type Limits Name
  {dd4a4224-abda-4056-8bcf-e2f40b3f4a0e}, !- Default Day Schedule Name
  {46b330af-ac37-4f69-81d6-9da1f4cf20a1}, !- Summer Design Day Schedule Name
  {c1952e7c-2bc1-4823-9309-7e00b3fe3ab1}; !- Winter Design Day Schedule Name

OS:ScheduleTypeLimits,
  {3bb10511-744a-4724-adcf-7f9d303a1c8c}, !- Handle
  Thermostat Cooling Setpoint Schedule Type Limits, !- Name
  0,                                      !- Lower Limit Value {BasedOnField A4}
  100,                                    !- Upper Limit Value {BasedOnField A4}
  Continuous,                             !- Numeric Type
  Temperature;                            !- Unit Type

OS:Schedule:Day,
  {dd4a4224-abda-4056-8bcf-e2f40b3f4a0e}, !- Handle
  0700|2300|FullServiceRestaurant|Kitchen|clg_setpoint |default, !- Name
  {3bb10511-744a-4724-adcf-7f9d303a1c8c}, !- Schedule Type Limits Name
  ,                                       !- Interpolate to Timestep
  24,                                     !- Hour 1
  0,                                      !- Minute 1
  26.0000000000001;                       !- Value Until Time 1

OS:Schedule:Day,
  {46b330af-ac37-4f69-81d6-9da1f4cf20a1}, !- Handle
  0700|2300|FullServiceRestaurant|Kitchen|clg_setpoint Summer Design Day, !- Name
  {3bb10511-744a-4724-adcf-7f9d303a1c8c}, !- Schedule Type Limits Name
  ,                                       !- Interpolate to Timestep
  24,                                     !- Hour 1
  0,                                      !- Minute 1
  26.0000000000001;                       !- Value Until Time 1

OS:Schedule:Day,
  {c1952e7c-2bc1-4823-9309-7e00b3fe3ab1}, !- Handle
  0700|2300|FullServiceRestaurant|Kitchen|clg_setpoint Winter Design Day, !- Name
  {3bb10511-744a-4724-adcf-7f9d303a1c8c}, !- Schedule Type Limits Name
  ,                                       !- Interpolate to Timestep
  24,                                     !- Hour 1
  0,                                      !- Minute 1
  26.0000000000001;                       !- Value Until Time 1

OS:Schedule:Ruleset,
  {9df2fca8-748a-4f0e-b20f-18cd537ca37b}, !- Handle
  0700|2300|FullServiceRestaurant|default|occ, !- Name
  {4617a6c9-e669-47fe-94b1-7ee588a49eae}, !- Schedule Type Limits Name
  {cb6bb530-1854-4b1c-96bd-a7c9019ecc4e}, !- Default Day Schedule Name
  {a7c4420f-13c6-4e07-92e6-43c67f3cc81e}, !- Summer Design Day Schedule Name
  {7e22087c-bbb0-4847-a685-70876ce28293}; !- Winter Design Day Schedule Name

OS:ScheduleTypeLimits,
  {4617a6c9-e669-47fe-94b1-7ee588a49eae}, !- Handle
  Occupancy Schedule Type Limits,         !- Name
  0,                                      !- Lower Limit Value {BasedOnField A4}
  1,                                      !- Upper Limit Value {BasedOnField A4}
  Continuous,                             !- Numeric Type
  Dimensionless;                          !- Unit Type

OS:Schedule:Day,
  {cb6bb530-1854-4b1c-96bd-a7c9019ecc4e}, !- Handle
  0700|2300|FullServiceRestaurant|default|occ |default, !- Name
  {4617a6c9-e669-47fe-94b1-7ee588a49eae}, !- Schedule Type Limits Name
  ,                                       !- Interpolate to Timestep
  1,                                      !- Hour 1
  0,                                      !- Minute 1
  0.05,                                   !- Value Until Time 1
  5,                                      !- Hour 2
  0,                                      !- Minute 2
  0,                                      !- Value Until Time 2
  6,                                      !- Hour 3
  0,                                      !- Minute 3
  0.05,                                   !- Value Until Time 3
  7,                                      !- Hour 4
  0,                                      !- Minute 4
  0.1,                                    !- Value Until Time 4
  10,                                     !- Hour 5
  0,                                      !- Minute 5
  0.4,                                    !- Value Until Time 5
  11,                                     !- Hour 6
  0,                                      !- Minute 6
  0.2,                                    !- Value Until Time 6
  12,                                     !- Hour 7
  0,                                      !- Minute 7
  0.5,                                    !- Value Until Time 7
  13,                                     !- Hour 8
  0,                                      !- Minute 8
  0.8,                                    !- Value Until Time 8
  14,                                     !- Hour 9
  0,                                      !- Minute 9
  0.7,                                    !- Value Until Time 9
  15,                                     !- Hour 10
  0,                                      !- Minute 10
  0.4,                                    !- Value Until Time 10
  16,                                     !- Hour 11
  0,                                      !- Minute 11
  0.2,                                    !- Value Until Time 11
  17,                                     !- Hour 12
  0,                                      !- Minute 12
  0.25,                                   !- Value Until Time 12
  18,                                     !- Hour 13
  0,                                      !- Minute 13
  0.5,                                    !- Value Until Time 13
  21,                                     !- Hour 14
  0,                                      !- Minute 14
  0.8,                                    !- Value Until Time 14
  22,                                     !- Hour 15
  0,                                      !- Minute 15
  0.5,                                    !- Value Until Time 15
  23,                                     !- Hour 16
  0,                                      !- Minute 16
  0.35,                                   !- Value Until Time 16
  24,                                     !- Hour 17
  0,                                      !- Minute 17
  0.2;                                    !- Value Until Time 17

OS:Schedule:Day,
  {a7c4420f-13c6-4e07-92e6-43c67f3cc81e}, !- Handle
  0700|2300|FullServiceRestaurant|default|occ Summer Design Day, !- Name
  {4617a6c9-e669-47fe-94b1-7ee588a49eae}, !- Schedule Type Limits Name
  ,                                       !- Interpolate to Timestep
  1,                                      !- Hour 1
  0,                                      !- Minute 1
  0.05,                                   !- Value Until Time 1
  5,                                      !- Hour 2
  0,                                      !- Minute 2
  0,                                      !- Value Until Time 2
  6,                                      !- Hour 3
  0,                                      !- Minute 3
  0.05,                                   !- Value Until Time 3
  7,                                      !- Hour 4
  0,                                      !- Minute 4
  0.1,                                    !- Value Until Time 4
  10,                                     !- Hour 5
  0,                                      !- Minute 5
  1,                                      !- Value Until Time 5
  11,                                     !- Hour 6
  0,                                      !- Minute 6
  0.2,                                    !- Value Until Time 6
  15,                                     !- Hour 7
  0,                                      !- Minute 7
  1,                                      !- Value Until Time 7
  16,                                     !- Hour 8
  0,                                      !- Minute 8
  0.2,                                    !- Value Until Time 8
  17,                                     !- Hour 9
  0,                                      !- Minute 9
  0.25,                                   !- Value Until Time 9
  23,                                     !- Hour 10
  0,                                      !- Minute 10
  1,                                      !- Value Until Time 10
  24,                                     !- Hour 11
  0,                                      !- Minute 11
  0.2;                                    !- Value Until Time 11

OS:Schedule:Day,
  {7e22087c-bbb0-4847-a685-70876ce28293}, !- Handle
  0700|2300|FullServiceRestaurant|default|occ Winter Design Day, !- Name
  {4617a6c9-e669-47fe-94b1-7ee588a49eae}, !- Schedule Type Limits Name
  ,                                       !- Interpolate to Timestep
  24,                                     !- Hour 1
  0,                                      !- Minute 1
  0;                                      !- Value Until Time 1

OS:Schedule:Rule,
  {f216128d-2e9f-4791-bcf7-eda978c61fe3}, !- Handle
  0700|2300|FullServiceRestaurant|default|occ |1/1-12/31|Sat Rule, !- Name
  {9df2fca8-748a-4f0e-b20f-18cd537ca37b}, !- Schedule Ruleset Name
  0,                                      !- Rule Order
  {b02caae5-f061-46a8-a9a5-d66d09146aa8}, !- Day Schedule Name
  ,                                       !- Apply Sunday
  ,                                       !- Apply Monday
  ,                                       !- Apply Tuesday
  ,                                       !- Apply Wednesday
  ,                                       !- Apply Thursday
  ,                                       !- Apply Friday
  Yes,                                    !- Apply Saturday
  ,                                       !- Apply Holiday
  DateRange,                              !- Date Specification Type
  1,                                      !- Start Month
  1,                                      !- Start Day
  12,                                     !- End Month
  31;                                     !- End Day

OS:Schedule:Day,
  {b02caae5-f061-46a8-a9a5-d66d09146aa8}, !- Handle
  0700|2300|FullServiceRestaurant|default|occ |1/1-12/31|Sat, !- Name
  {4617a6c9-e669-47fe-94b1-7ee588a49eae}, !- Schedule Type Limits Name
  ,                                       !- Interpolate to Timestep
  1,                                      !- Hour 1
  0,                                      !- Minute 1
  0.05,                                   !- Value Until Time 1
  6,                                      !- Hour 2
  0,                                      !- Minute 2
  0,                                      !- Value Until Time 2
  7,                                      !- Hour 3
  0,                                      !- Minute 3
  0.05,                                   !- Value Until Time 3
  9,                                      !- Hour 4
  0,                                      !- Minute 4
  0.5,                                    !- Value Until Time 4
  10,                                     !- Hour 5
  0,                                      !- Minute 5
  0.4,                                    !- Value Until Time 5
  11,                                     !- Hour 6
  0,                                      !- Minute 6
  0.2,                                    !- Value Until Time 6
  12,                                     !- Hour 7
  0,                                      !- Minute 7
  0.45,                                   !- Value Until Time 7
  14,                                     !- Hour 8
  0,                                      !- Minute 8
  0.5,                                    !- Value Until Time 8
  15,                                     !- Hour 9
  0,                                      !- Minute 9
  0.35,                                   !- Value Until Time 9
  18,                                     !- Hour 10
  0,                                      !- Minute 10
  0.3,                                    !- Value Until Time 10
  19,                                     !- Hour 11
  0,                                      !- Minute 11
  0.7,                                    !- Value Until Time 11
  20,                                     !- Hour 12