
OS:Version,
  {f3a4f3cf-a71c-466f-b1f6-25fc32967c34}, !- Handle
  1.5.5;                                  !- Version Identifier

OS:ClimateZones,
  {135edfab-17e7-40db-a436-27d385a8cd6d}, !- Handle
  ,                                       !- Active Institution
  ,                                       !- Active Year
  ASHRAE,                                 !- Climate Zone Institution Name 1
  ANSI/ASHRAE Standard 169,               !- Climate Zone Document Name 1
  2006,                                   !- Climate Zone Document Year 1
  ,                                       !- Climate Zone Value 1
  CEC,                                    !- Climate Zone Institution Name 2
  California Climate Zone Descriptions,   !- Climate Zone Document Name 2
  1995,                                   !- Climate Zone Document Year 2
  ;                                       !- Climate Zone Value 2

OS:YearDescription,
  {513d8dda-86cb-442a-b01c-1f7f0e0ac70e}; !- Handle

OS:RadianceParameters,
  {270a96f1-3c86-4b75-a667-cdf22790e2c8}, !- Handle
  1,                                      !- Accumulated Rays per Record
  0,                                      !- Direct Threshold
  1,                                      !- Direct Certainty
  1,                                      !- Direct Jitter
  1,                                      !- Direct Pretest
  6,                                      !- Ambient Bounces VMX
  2,                                      !- Ambient Bounces DMX
  4050,                                   !- Ambient Divisions VMX
  512,                                    !- Ambient Divisions DMX
  256,                                    !- Ambient Supersamples
  0.001,                                  !- Limit Weight VMX
  0.001,                                  !- Limit Weight DMX
  500,                                    !- Klems Sampling Density
  146;                                    !- Sky Discretization Resolution

OS:SimulationControl,
  {2c487a4c-bac9-4ac5-b669-1e49d9da7c2b}, !- Handle
  ,                                       !- Do Zone Sizing Calculation
  ,                                       !- Do System Sizing Calculation
  ,                                       !- Do Plant Sizing Calculation
  No,                                     !- Run Simulation for Sizing Periods
  ,                                       !- Run Simulation for Weather File Run Periods
  0.04,                                   !- Loads Convergence Tolerance Value
  ,                                       !- Temperature Convergence Tolerance Value {deltaC}
  ,                                       !- Solar Distribution
  ,                                       !- Maximum Number of Warmup Days
  2;                                      !- Minimum Number of Warmup Days

OS:Sizing:Parameters,
  {dde5af6f-7923-4600-a28a-7556673a0266}, !- Handle
  1.25,                                   !- Heating Sizing Factor
  1.15;                                   !- Cooling Sizing Factor

OS:ProgramControl,
  {05027a99-f2b3-4aeb-afc6-1425fbb4371d}; !- Handle

OS:Timestep,
  {4ebc9f1e-4707-402e-9844-67eb1ffbd522}, !- Handle
  2;                                      !- Number of Timesteps per Hour

OS:OutputControl:ReportingTolerances,
  {65797aa2-06a9-45fe-b69d-bc6e060399d3}; !- Handle

OS:ConvergenceLimits,
  {9fc11aba-8822-4f3d-970c-46391ba4040d}; !- Handle

OS:ShadowCalculation,
  {ca758bea-4416-4626-9bba-3d8795c79bd6}, !- Handle
  7,                                      !- Calculation Frequency
  15000;                                  !- Maximum Figures in Shadow Overlap Calculations

OS:SurfaceConvectionAlgorithm:Inside,
  {aaabfc36-718a-4ab0-b622-f186ebb45230}, !- Handle
  TARP;                                   !- Algorithm

OS:SurfaceConvectionAlgorithm:Outside,
  {9a0a9f6f-4bbd-4b12-a121-9492a1fcd7d6}, !- Handle
  DOE-2;                                  !- Algorithm

OS:HeatBalanceAlgorithm,
  {9d93e563-e1e0-46d7-9e39-d1c8aceb7212}, !- Handle
  ConductionTransferFunction,             !- Algorithm
  200;                                    !- Surface Temperature Upper Limit {F}

OS:ZoneAirHeatBalanceAlgorithm,
  {8520d93e-310f-4696-9bcd-36228bfdd743}, !- Handle
  AnalyticalSolution;                     !- Algorithm

OS:ZoneAirContaminantBalance,
  {eb5fc3ae-fb22-4160-8fcb-3e3b22b000d3}; !- Handle

OS:ZoneCapacitanceMultiplier:ResearchSpecial,
  {4020ce4f-5a7a-4849-8028-8305d7b751b1}, !- Handle
  ,                                       !- Temperature Capacity Multiplier
  ,                                       !- Humidity Capacity Multiplier
  ;                                       !- Carbon Dioxide Capacity Multiplier

OS:RunPeriod,
  {28df894d-6af9-4fb8-8f56-df1753344aa3}, !- Handle
  Run Period 1,                           !- Name
  1,                                      !- Begin Month
  1,                                      !- Begin Day of Month
  12,                                     !- End Month
  31,                                     !- End Day of Month
  ,                                       !- Use Weather File Holidays and Special Days
  ,                                       !- Use Weather File Daylight Saving Period
  ,                                       !- Apply Weekend Holiday Rule
  ,                                       !- Use Weather File Rain Indicators
  ,                                       !- Use Weather File Snow Indicators
  ;                                       !- Number of Times Runperiod to be Repeated

OS:Building,
  {bf305633-c5a1-4881-9edf-ca5e1a8e1274}, !- Handle
  Building 1,                             !- Name
  ,                                       !- Building Sector Type
  ,                                       !- North Axis {deg}
  ,                                       !- Nominal Floor to Floor Height {m}
  ,                                       !- Space Type Name
  ,                                       !- Default Construction Set Name
  {dbbece43-8379-43ea-8ca3-fb77d8429b84}, !- Default Schedule Set Name
  ,                                       !- Standards Number of Stories
  ,                                       !- Standards Number of Above Ground Stories
  GasStation;                             !- Standards Building Type

OS:LifeCycleCost:Parameters,
  {231cf8a0-f0e7-4251-a99f-11f0d464e661}, !- Handle
  FEMP,                                   !- Analysis Type
  ,                                       !- Discounting Convention
  ,                                       !- Inflation Approach
  ,                                       !- Real Discount Rate
  ,                                       !- Nominal Discount Rate
  ,                                       !- Inflation
  ,                                       !- Base Date Month
  ,                                       !- Base Date Year
  ,                                       !- Service Date Month
  ,                                       !- Service Date Year
  ,                                       !- Length of Study Period in Years
  ,                                       !- Tax Rate
  ,                                       !- Depreciation Method
  Yes;                                    !- Use NIST Fuel Escalation Rates

OS:Facility,
  {3ba8e45b-b833-44eb-a723-ea6c3946dc96}; !- Handle

OS:SpaceType,
  {9c54ec7d-f66d-4350-a375-d7e4ce7b8b06}, !- Handle
  GasStation|Retail|DOE Ref 2004|ASHRAE 169-2006-5A, !- Name
  {85fbc85e-b623-4ae9-97a8-55b772543d61}, !- Default Construction Set Name
  {4292a98f-ca6f-47c1-b670-4a2b2663f531}, !- Default Schedule Set Name
  {1c71b958-b211-42a5-92d7-48e6cdea36b2}, !- Group Rendering Name
  {0153eb23-6411-4bc4-a699-ab67039edf0d}, !- Design Specification Outdoor Air Object Name
  GasStation,                             !- Standards Building Type
  Retail;                                 !- Standards Space Type

OS:Rendering:Color,
  {1c71b958-b211-42a5-92d7-48e6cdea36b2}, !- Handle
  Rendering Color 1,                      !- Name
  171,                                    !- Rendering Red Value
  222,                                    !- Rendering Green Value
  78;                                     !- Rendering Blue Value

OS:SpaceType,
  {d34fff9b-ef99-4542-8232-58fb23da337e}, !- Handle
  GasStation|Restroom|DOE Ref 2004|ASHRAE 169-2006-5A, !- Name
  {85fbc85e-b623-4ae9-97a8-55b772543d61}, !- Default Construction Set Name
  {46953cb6-76a7-4fa8-b085-ae0f9aea36fb}, !- Default Schedule Set Name
  {5dcc4298-6d99-4419-9df1-7cc8e93ef9bd}, !- Group Rendering Name
  {fa242d69-cc12-43ec-b7f1-a7ae44b274ec}, !- Design Specification Outdoor Air Object Name
  GasStation,                             !- Standards Building Type
  Restroom;                               !- Standards Space Type

OS:Rendering:Color,
  {5dcc4298-6d99-4419-9df1-7cc8e93ef9bd}, !- Handle
  Rendering Color 2,                      !- Name
  169,                                    !- Rendering Red Value
  169,                                    !- Rendering Green Value
  31;                                     !- Rendering Blue Value

OS:SpaceType,
  {eddc3c18-7a77-40b0-8e63-ceacbe63976d}, !- Handle
  GasStation|ClosedOffice|DOE Ref 2004|ASHRAE 169-2006-5A, !- Name
  {85fbc85e-b623-4ae9-97a8-55b772543d61}, !- Default Construction Set Name
  {6a560511-4ba3-49c9-a7f2-6da65a4727d6}, !- Default Schedule Set Name
  {01a9b54d-23e1-453d-a75e-c7a291914e55}, !- Group Rendering Name
  {48d6b665-8175-437a-8e6c-42b41db5a464}, !- Design Specification Outdoor Air Object Name
  GasStation,                             !- Standards Building Type
  ClosedOffice;                           !- Standards Space Type

OS:Rendering:Color,
  {01a9b54d-23e1-453d-a75e-c7a291914e55}, !- Handle
  Rendering Color 3,                      !- Name
  120,                                    !- Rendering Red Value
  230,                                    !- Rendering Green Value
  199;                                    !- Rendering Blue Value

OS:Schedule:Ruleset,
  {eee5aee1-2fed-48af-a556-83c58c52a0c7}, !- Handle
  0600|2000|GasStation|default|hoo,       !- Name
  {87d8231b-6707-49a9-9f9b-3a474303dde4}, !- Schedule Type Limits Name
  {36f5ace4-cfcd-4fa7-aa0e-e066b2d77472}, !- Default Day Schedule Name
  {3e16a6e7-3be9-4e92-bf2b-f0badd0d36e5}, !- Summer Design Day Schedule Name
  {83e6932c-2ab4-4860-999c-7c90c9f4a45b}; !- Winter Design Day Schedule Name

OS:Schedule:Day,
  {36f5ace4-cfcd-4fa7-aa0e-e066b2d77472}, !- Handle
  0600|2000|GasStation|default|hoo Schedule Week Day, !- Name
  {87d8231b-6707-49a9-9f9b-3a474303dde4}, !- Schedule Type Limits Name
  ,                                       !- Interpolate to Timestep
  6,                                      !- Hour 1
  0,                                      !- Minute 1
  0,                                      !- Value Until Time 1
  20,                                     !- Hour 2
  0,                                      !- Minute 2
  1,                                      !- Value Until Time 2
  24,                                     !- Hour 3
  0,                                      !- Minute 3
  0;                                      !- Value Until Time 3

OS:Schedule:Day,
  {e2f28ca3-a62a-4fb1-9205-faa2d0d001a9}, !- Handle
  Schedule Day 2,                         !- Name
  ,                                       !- Schedule Type Limits Name
  ,                                       !- Interpolate to Timestep
  24,                                     !- Hour 1
  0,                                      !- Minute 1
  0;                                      !- Value Until Time 1

OS:Schedule:Day,
  {83e6932c-2ab4-4860-999c-7c90c9f4a45b}, !- Handle
  0600|2000|GasStation|default|hoo Winter Design Day, !- Name
  {87d8231b-6707-49a9-9f9b-3a474303dde4}, !- Schedule Type Limits Name
  ,                                       !- Interpolate to Timestep
  24,                                     !- Hour 1
  0,                                      !- Minute 1
  0;                                      !- Value Until Time 1

OS:Schedule:Day,
  {eac78185-2e0f-452a-8c59-bd96af43e9b7}, !- Handle
  Schedule Day 3,                         !- Name
  ,                                       !- Schedule Type Limits Name
  ,                                       !- Interpolate to Timestep
  24,                                     !- Hour 1
  0,                                      !- Minute 1
  0;                                      !- Value Until Time 1

OS:Schedule:Day,
  {3e16a6e7-3be9-4e92-bf2b-f0badd0d36e5}, !- Handle
  0600|2000|GasStation|default|hoo Summer Design Day, !- Name
  {87d8231b-6707-49a9-9f9b-3a474303dde4}, !- Schedule Type Limits Name
  ,                                       !- Interpolate to Timestep
  24,                                     !- Hour 1
  0,                                      !- Minute 1
  1;                                      !- Value Until Time 1

OS:DefaultScheduleSet,
  {dbbece43-8379-43ea-8ca3-fb77d8429b84}, !- Handle
  Building Hours of Operation,            !- Name
  {eee5aee1-2fed-48af-a556-83c58c52a0c7}, !- Hours of Operation Schedule Name
  ,                                       !- Number of People Schedule Name
  ,                                       !- People Activity Level Schedule Name
  ,                                       !- Lighting Schedule Name
  ,                                       !- Electric Equipment Schedule Name
  ,                                       !- Gas Equipment Schedule Name
  ,                                       !- Hot Water Equipment Schedule Name
  ,                                       !- Infiltration Schedule Name
  ,                                       !- Steam Equipment Schedule Name
  ;                                       !- Other Equipment Schedule Name

OS:ScheduleTypeLimits,
  {87d8231b-6707-49a9-9f9b-3a474303dde4}, !- Handle
  OnOff,                                  !- Name
  0,                                      !- Lower Limit Value {BasedOnField A4}
  1,                                      !- Upper Limit Value {BasedOnField A4}
  Discrete,                               !- Numeric Type
  Availability;                           !- Unit Type

OS:Schedule:Ruleset,
  {3f2d8f45-cb3b-4a87-86d4-d120a2f62af0}, !- Handle
  0600|2000|GasStation|default|work_eff,  !- Name
  {8199d9b8-fcb7-4efb-ae2d-c6be3af2825d}, !- Schedule Type Limits Name
  {90bfeae4-9e81-45a9-8be4-81a5e9c7d414}, !- Default Day Schedule Name
  {c556f2fe-3ae5-4edf-acc5-7a7a81046bd4}, !- Summer Design Day Schedule Name
  {32610f1e-7dbb-4a05-a6e1-279529d423d7}; !- Winter Design Day Schedule Name

OS:ScheduleTypeLimits,
  {8199d9b8-fcb7-4efb-ae2d-c6be3af2825d}, !- Handle
  Fraction Schedule Type Limits,          !- Name
  0,                                      !- Lower Limit Value {BasedOnField A4}
  1,                                      !- Upper Limit Value {BasedOnField A4}
  Continuous,                             !- Numeric Type
  Dimensionless;                          !- Unit Type

OS:Schedule:Day,
  {90bfeae4-9e81-45a9-8be4-81a5e9c7d414}, !- Handle
  0600|2000|GasStation|default|work_eff |default, !- Name
  {8199d9b8-fcb7-4efb-ae2d-c6be3af2825d}, !- Schedule Type Limits Name
  ,                                       !- Interpolate to Timestep
  24,                                     !- Hour 1
  0,                                      !- Minute 1
  0;                                      !- Value Until Time 1

OS:Schedule:Day,
  {c556f2fe-3ae5-4edf-acc5-7a7a81046bd4}, !- Handle
  0600|2000|GasStation|default|work_eff Summer Design Day, !- Name
  {8199d9b8-fcb7-4efb-ae2d-c6be3af2825d}, !- Schedule Type Limits Name
  ,                                       !- Interpolate to Timestep
  24,                                     !- Hour 1
  0,                                      !- Minute 1
  0;                                      !- Value Until Time 1

OS:Schedule:Day,
  {32610f1e-7dbb-4a05-a6e1-279529d423d7}, !- Handle
  0600|2000|GasStation|default|work_eff Winter Design Day, !- Name
  {8199d9b8-fcb7-4efb-ae2d-c6be3af2825d}, !- Schedule Type Limits Name
  ,                                       !- Interpolate to Timestep
  24,                                     !- Hour 1
  0,                                      !- Minute 1
  0;                                      !- Value Until Time 1

OS:Schedule:Ruleset,
  {068f55fa-8832-4ca0-b754-22f686240eca}, !- Handle
  0600|2000|GasStation|default|htg_setpoint, !- Name
  {b0925cef-a359-44a6-966b-73211d593e5b}, !- Schedule Type Limits Name
  {ac6deb82-9e02-414f-9183-e32034f2d666}, !- Default Day Schedule Name
  {ffaa41df-9893-4a83-ab16-b27f23ec4152}, !- Summer Design Day Schedule Name
  {4abc4305-a53d-4fe0-90ad-04492418bf83}; !- Winter Design Day Schedule Name

OS:ScheduleTypeLimits,
  {b0925cef-a359-44a6-966b-73211d593e5b}, !- Handle
  Thermostat Heating Setpoint Schedule Type Limits, !- Name
  0,                                      !- Lower Limit Value {BasedOnField A4}
  100,                                    !- Upper Limit Value {BasedOnField A4}
  Continuous,                             !- Numeric Type
  Temperature;                            !- Unit Type

OS:Schedule:Day,
  {ac6deb82-9e02-414f-9183-e32034f2d666}, !- Handle
  0600|2000|GasStation|default|htg_setpoint |default, !- Name
  {b0925cef-a359-44a6-966b-73211d593e5b}, !- Schedule Type Limits Name
  ,                                       !- Interpolate to Timestep
  24,                                     !- Hour 1
  0,                                      !- Minute 1
  21.0000000000001;                       !- Value Until Time 1

OS:Schedule:Day,
  {ffaa41df-9893-4a83-ab16-b27f23ec4152}, !- Handle
  0600|2000|GasStation|default|htg_setpoint Summer Design Day, !- Name
  {b0925cef-a359-44a6-966b-73211d593e5b}, !- Schedule Type Limits Name
  ,                                       !- Interpolate to Timestep
  24,                                     !- Hour 1
  0,                                      !- Minute 1
  21.0000000000001;                       !- Value Until Time 1

OS:Schedule:Day,
  {4abc4305-a53d-4fe0-90ad-04492418bf83}, !- Handle
  0600|2000|GasStation|default|htg_setpoint Winter Design Day, !- Name
  {b0925cef-a359-44a6-966b-73211d593e5b}, !- Schedule Type Limits Name
  ,                                       !- Interpolate to Timestep
  24,                                     !- Hour 1
  0,                                      !- Minute 1
  21.0000000000001;                       !- Value Until Time 1

OS:Schedule:Rule,
  {84199108-001e-48cd-b53e-151da0a59c1c}, !- Handle
  0600|2000|GasStation|default|htg_setpoint |1/1-12/31|Sun Rule, !- Name
  {068f55fa-8832-4ca0-b754-22f686240eca}, !- Schedule Ruleset Name
  0,                                      !- Rule Order
  {5a87dbeb-67be-472d-90b2-367109091c7b}, !- Day Schedule Name
  Yes,                                    !- Apply Sunday
  ,                                       !- Apply Monday
  ,                                       !- Apply Tuesday
  ,                                       !- Apply Wednesday
  ,                                       !- Apply Thursday
  ,                                       !- Apply Friday
  ,                                       !- Apply Saturday
  ,                                       !- Apply Holiday
  DateRange,                              !- Date Specification Type
  1,                                      !- Start Month
  1,                                      !- Start Day
  12,                                     !- End Month
  31;                                     !- End Day

OS:Schedule:Day,
  {5a87dbeb-67be-472d-90b2-367109091c7b}, !- Handle
  0600|2000|GasStation|default|htg_setpoint |1/1-12/31|Sun, !- Name
  {b0925cef-a359-44a6-966b-73211d593e5b}, !- Schedule Type Limits Name
  ,                                       !- Interpolate to Timestep
  24,                                     !- Hour 1
  0,                                      !- Minute 1
  21.0000000000001;                       !- Value Until Time 1

OS:Schedule:Rule,
  {8eb03873-0044-4e5f-aab9-3258978c6d60}, !- Handle
  0600|2000|GasStation|default|htg_setpoint |1/1-12/31|Sat Rule, !- Name
  {068f55fa-8832-4ca0-b754-22f686240eca}, !- Schedule Ruleset Name
  1,                                      !- Rule Order
  {c18022fb-ef63-4693-b612-0513abb70de8}, !- Day Schedule Name
  ,                                       !- Apply Sunday
  ,                                       !- Apply Monday
  ,                                       !- Apply Tuesday
  ,                                       !- Apply Wednesday
  ,                                       !- Apply Thursday
  ,                                       !- Apply Friday
  Yes,                                    !- Apply Saturday
  ,                                       !- Apply Holiday
  DateRange,                              !- Date Specification Type
  1,                                      !- Start Month
  1,                                      !- Start Day
  12,                                     !- End Month
  31;                                     !- End Day

OS:Schedule:Day,
  {c18022fb-ef63-4693-b612-0513abb70de8}, !- Handle
  0600|2000|GasStation|default|htg_setpoint |1/1-12/31|Sat, !- Name
  {b0925cef-a359-44a6-966b-73211d593e5b}, !- Schedule Type Limits Name
  ,                                       !- Interpolate to Timestep
  24,                                     !- Hour 1
  0,                                      !- Minute 1
  21.0000000000001;                       !- Value Until Time 1

OS:Schedule:Ruleset,
  {de9612cb-3d04-4339-8812-579056d27c43}, !- Handle
  0600|2000|GasStation|Retail|occ,        !- Name
  {c0fc9509-9eac-40a8-8027-76c2643ed06f}, !- Schedule Type Limits Name
  {d1797b4c-3cef-4b15-814b-dac03bcf6892}, !- Default Day Schedule Name
  {bdd7b3d0-b417-4cd3-bd19-1ed555332f3a}, !- Summer Design Day Schedule Name
  {26bccdac-b081-4cc5-81a3-1338c06c3cda}; !- Winter Design Day Schedule Name

OS:ScheduleTypeLimits,
  {c0fc9509-9eac-40a8-8027-76c2643ed06f}, !- Handle
  Occupancy Schedule Type Limits,         !- Name
  0,                                      !- Lower Limit Value {BasedOnField A4}
  1,                                      !- Upper Limit Value {BasedOnField A4}
  Continuous,                             !- Numeric Type
  Dimensionless;                          !- Unit Type

OS:Schedule:Day,
  {d1797b4c-3cef-4b15-814b-dac03bcf6892}, !- Handle
  0600|2000|GasStation|Retail|occ |default, !- Name
  {c0fc9509-9eac-40a8-8027-76c2643ed06f}, !- Schedule Type Limits Name
  ,                                       !- Interpolate to Timestep
  6,                                      !- Hour 1
  0,                                      !- Minute 1
  0,                                      !- Value Until Time 1
  7,                                      !- Hour 2
  0,                                      !- Minute 2
  0.1,                                    !- Value Until Time 2
  8,                                      !- Hour 3
  0,                                      !- Minute 3
  0.2,                                    !- Value Until Time 3
  10,                                     !- Hour 4
  0,                                      !- Minute 4
  0.5,                                    !- Value Until Time 4
  14,                                     !- Hour 5
  0,                                      !- Minute 5
  0.7,                                    !- Value Until Time 5
  15,                                     !- Hour 6
  0,                                      !- Minute 6
  0.8,                                    !- Value Until Time 6
  16,                                     !- Hour 7
  0,                                      !- Minute 7
  0.7,                                    !- Value Until Time 7
  18,                                     !- Hour 8
  0,                                      !- Minute 8
  0.5,                                    !- Value Until Time 8
  20,                                     !- Hour 9
  0,                                      !- Minute 9
  0.3,                                    !- Value Until Time 9
  24,                                     !- Hour 10
  0,                                      !- Minute 10
  0;                                      !- Value Until Time 10

OS:Schedule:Day,
  {bdd7b3d0-b417-4cd3-bd19-1ed555332f3a}, !- Handle
  0600|2000|GasStation|Retail|occ Summer Design Day, !- Name
  {c0fc9509-9eac-40a8-8027-76c2643ed06f}, !- Schedule Type Limits Name
  ,                                       !- Interpolate to Timestep
  6,                                      !- Hour 1
  0,                                      !- Minute 1
  0,                                      !- Value Until Time 1
  7,                                      !- Hour 2
  0,                                      !- Minute 2
  0.1,                                    !- Value Until Time 2
  8,                                      !- Hour 3
  0,                                      !- Minute 3
  0.2,                                    !- Value Until Time 3
  20,                                     !- Hour 4
  0,                                      !- Minute 4
  1,                                      !- Value Until Time 4
  24,                                     !- Hour 5
  0,                                      !- Minute 5
  0;                                      !- Value Until Time 5

OS:Schedule:Day,
  {26bccdac-b081-4cc5-81a3-1338c06c3cda}, !- Handle
  0600|2000|GasStation|Retail|occ Winter Design Day, !- Name
  {c0fc9509-9eac-40a8-8027-76c2643ed06f}, !- Schedule Type Limits Name
  ,                                       !- Interpolate to Timestep
  24,                                     !- Hour 1
  0,                                      !- Minute 1
  0;                                      !- Value Until Time 1

OS:Schedule:Rule,
  {beb21632-81dc-41c3-8ec4-4f7f825b554e}, !- Handle
  0600|2000|GasStation|Retail|occ |1/1-12/31|Sat Rule, !- Name
  {de9612cb-3d04-4339-8812-579056d27c43}, !- Schedule Ruleset Name
  0,                                      !- Rule Order
  {c978d161-062c-4b00-a22d-fad99ef3ff54}, !- Day Schedule Name
  ,                                       !- Apply Sunday
  ,                                       !- Apply Monday
  ,                                       !- Apply Tuesday
  ,                                       !- Apply Wednesday
  ,                                       !- Apply Thursday
  ,                                       !- Apply Friday
  Yes,                                    !- Apply Saturday
  ,                                       !- Apply Holiday
  DateRange,                              !- Date Specification Type
  1,                                      !- Start Month
  1,                                      !- Start Day
  12,                                     !- End Month
  31;                                     !- End Day

OS:Schedule:Day,
  {c978d161-062c-4b00-a22d-fad99ef3ff54}, !- Handle
  0600|2000|GasStation|Retail|occ |1/1-12/31|Sat, !- Name
  {c0fc9509-9eac-40a8-8027-76c2643ed06f}, !- Schedule Type Limits Name
  ,                                       !- Interpolate to Timestep
  6,                                      !- Hour 1
  0,                                      !- Minute 1
  0,                                      !- Value Until Time 1
  7,                                      !- Hour 2
  0,                                      !- Minute 2
  0.1,                                    !- Value Until Time 2
  8,                                      !- Hour 3
  0,                                      !- Minute 3
  0.2,                                    !- Value Until Time 3
  9,                                      !- Hour 4
  0,                                      !- Minute 4
  0.5,                                    !- Value Until Time 4
  10,                                     !- Hour 5
  0,                                      !- Minute 5
  0.6,                                    !- Value Until Time 5
  16,                                     !- Hour 6
  0,                                      !- Minute 6
  0.8,                                    !- Value Until Time 6
  17,                                     !- Hour 7
  0,                                      !- Minute 7
  0.6,                                    !- Value Until Time 7
  20,                                     !- Hour 8
  0,                                      !- Minute 8
  0.2,                                    !- Value Until Time 8
  21,                                     !- Hour 9
  0,                                      !- Minute 9
  0.1,                                    !- Value Until Time 9
  24,                                     !- Hour 10
  0,                                      !- Minute 10
  0;                                      !- Value Until Time 10

OS:Schedule:Rule,
  {63c86aff-ec16-4220-9df2-8e6e7ae5e961}, !- Handle
  0600|2000|GasStation|Retail|occ |1/1-12/31|Sun Rule, !- Name
  {de9612cb-3d04-4339-8812-579056d27c43}, !- Schedule Ruleset Name
  1,                                      !- Rule Order
  {9f518772-cea5-4479-b561-c5e0a172deb8}, !- Day Schedule Name
  Yes,                                    !- Apply Sunday
  ,                                       !- Apply Monday
  ,                                       !- Apply Tuesday
  ,                                       !- Apply Wednesday
  ,                                       !- Apply Thursday
  ,                                       !- Apply Friday
  ,                                       !- Apply Saturday
  ,                                       !- Apply Holiday
  DateRange,                              !- Date Specification Type
  1,                                      !- Start Month