
OS:Version,
  {addf333f-b0e0-4fb0-9913-71dee671eebf}, !- Handle
  1.5.5;                                  !- Version Identifier

OS:ClimateZones,
  {135edfab-17e7-40db-a436-27d385a8cd6d}, !- Handle
  ,                                       !- Active Institution
  ,                                       !- Active Year
  ASHRAE,                                 !- Climate Zone Institution Name 1
  ANSI/ASHRAE Standard 169,               !- Climate Zone Document Name 1
  2006,                                   !- Climate Zone Document Year 1
  ,                                       !- Climate Zone Value 1
  CEC,                                    !- Climate Zone Institution Name 2
  California Climate Zone Descriptions,   !- Climate Zone Document Name 2
  1995,                                   !- Climate Zone Document Year 2
  ;                                       !- Climate Zone Value 2

OS:YearDescription,
  {513d8dda-86cb-442a-b01c-1f7f0e0ac70e}; !- Handle

OS:RadianceParameters,
  {270a96f1-3c86-4b75-a667-cdf22790e2c8}, !- Handle
  1,                                      !- Accumulated Rays per Record
  0,                                      !- Direct Threshold
  1,                                      !- Direct Certainty
  1,                                      !- Direct Jitter
  1,                                      !- Direct Pretest
  6,                                      !- Ambient Bounces VMX
  2,                                      !- Ambient Bounces DMX
  4050,                                   !- Ambient Divisions VMX
  512,                                    !- Ambient Divisions DMX
  256,                                    !- Ambient Supersamples
  0.001,                                  !- Limit Weight VMX
  0.001,                                  !- Limit Weight DMX
  500,                                    !- Klems Sampling Density
  146;                                    !- Sky Discretization Resolution

OS:SimulationControl,
  {2c487a4c-bac9-4ac5-b669-1e49d9da7c2b}, !- Handle
  ,                                       !- Do Zone Sizing Calculation
  ,                                       !- Do System Sizing Calculation
  ,                                       !- Do Plant Sizing Calculation
  No,                                     !- Run Simulation for Sizing Periods
  ,                                       !- Run Simulation for Weather File Run Periods
  0.04,                                   !- Loads Convergence Tolerance Value
  ,                                       !- Temperature Convergence Tolerance Value {deltaC}
  ,                                       !- Solar Distribution
  ,                                       !- Maximum Number of Warmup Days
  2;                                      !- Minimum Number of Warmup Days

OS:Sizing:Parameters,
  {dde5af6f-7923-4600-a28a-7556673a0266}, !- Handle
  1.25,                                   !- Heating Sizing Factor
  1.15;                                   !- Cooling Sizing Factor

OS:ProgramControl,
  {05027a99-f2b3-4aeb-afc6-1425fbb4371d}; !- Handle

OS:Timestep,
  {4ebc9f1e-4707-402e-9844-67eb1ffbd522}, !- Handle
  2;                                      !- Number of Timesteps per Hour

OS:OutputControl:ReportingTolerances,
  {65797aa2-06a9-45fe-b69d-bc6e060399d3}; !- Handle

OS:ConvergenceLimits,
  {9fc11aba-8822-4f3d-970c-46391ba4040d}; !- Handle

OS:ShadowCalculation,
  {ca758bea-4416-4626-9bba-3d8795c79bd6}, !- Handle
  7,                                      !- Calculation Frequency
  15000;                                  !- Maximum Figures in Shadow Overlap Calculations

OS:SurfaceConvectionAlgorithm:Inside,
  {aaabfc36-718a-4ab0-b622-f186ebb45230}, !- Handle
  TARP;                                   !- Algorithm

OS:SurfaceConvectionAlgorithm:Outside,
  {9a0a9f6f-4bbd-4b12-a121-9492a1fcd7d6}, !- Handle
  DOE-2;                                  !- Algorithm

OS:HeatBalanceAlgorithm,
  {9d93e563-e1e0-46d7-9e39-d1c8aceb7212}, !- Handle
  ConductionTransferFunction,             !- Algorithm
  200;                                    !- Surface Temperature Upper Limit {F}

OS:ZoneAirHeatBalanceAlgorithm,
  {8520d93e-310f-4696-9bcd-36228bfdd743}, !- Handle
  AnalyticalSolution;                     !- Algorithm

OS:ZoneAirContaminantBalance,
  {eb5fc3ae-fb22-4160-8fcb-3e3b22b000d3}; !- Handle

OS:ZoneCapacitanceMultiplier:ResearchSpecial,
  {4020ce4f-5a7a-4849-8028-8305d7b751b1}, !- Handle
  ,                                       !- Temperature Capacity Multiplier
  ,                                       !- Humidity Capacity Multiplier
  ;                                       !- Carbon Dioxide Capacity Multiplier

OS:RunPeriod,
  {28df894d-6af9-4fb8-8f56-df1753344aa3}, !- Handle
  Run Period 1,                           !- Name
  1,                                      !- Begin Month
  1,                                      !- Begin Day of Month
  12,                                     !- End Month
  31,                                     !- End Day of Month
  ,                                       !- Use Weather File Holidays and Special Days
  ,                                       !- Use Weather File Daylight Saving Period
  ,                                       !- Apply Weekend Holiday Rule
  ,                                       !- Use Weather File Rain Indicators
  ,                                       !- Use Weather File Snow Indicators
  ;                                       !- Number of Times Runperiod to be Repeated

OS:Building,
  {bf305633-c5a1-4881-9edf-ca5e1a8e1274}, !- Handle
  Building 1,                             !- Name
  ,                                       !- Building Sector Type
  ,                                       !- North Axis {deg}
  ,                                       !- Nominal Floor to Floor Height {m}
  ,                                       !- Space Type Name
  ,                                       !- Default Construction Set Name
  {20d7b514-b637-4112-b880-d1d5b10a96bf}, !- Default Schedule Set Name
  ,                                       !- Standards Number of Stories
  ,                                       !- Standards Number of Above Ground Stories
  GasStation;                             !- Standards Building Type

OS:LifeCycleCost:Parameters,
  {231cf8a0-f0e7-4251-a99f-11f0d464e661}, !- Handle
  FEMP,                                   !- Analysis Type
  ,                                       !- Discounting Convention
  ,                                       !- Inflation Approach
  ,                                       !- Real Discount Rate
  ,                                       !- Nominal Discount Rate
  ,                                       !- Inflation
  ,                                       !- Base Date Month
  ,                                       !- Base Date Year
  ,                                       !- Service Date Month
  ,                                       !- Service Date Year
  ,                                       !- Length of Study Period in Years
  ,                                       !- Tax Rate
  ,                                       !- Depreciation Method
  Yes;                                    !- Use NIST Fuel Escalation Rates

OS:Facility,
  {3ba8e45b-b833-44eb-a723-ea6c3946dc96}; !- Handle

OS:SpaceType,
  {25956d89-241f-49ec-b3e8-c4a10bf8c307}, !- Handle
  GasStation|Retail|DOE Ref Pre-1980|ASHRAE 169-2006-5A, !- Name
  {5dca6515-52a9-4fa4-bc4a-e924f4de4647}, !- Default Construction Set Name
  {f29d1258-8a7a-4684-9e8c-a7d6abbe2ce9}, !- Default Schedule Set Name
  {e624b26c-d738-442c-ad16-c62018e55b4c}, !- Group Rendering Name
  {f7c6fa31-ccb9-4b2d-ae34-173caa1dc197}, !- Design Specification Outdoor Air Object Name
  GasStation,                             !- Standards Building Type
  Retail;                                 !- Standards Space Type

OS:Rendering:Color,
  {e624b26c-d738-442c-ad16-c62018e55b4c}, !- Handle
  Rendering Color 1,                      !- Name
  171,                                    !- Rendering Red Value
  222,                                    !- Rendering Green Value
  78;                                     !- Rendering Blue Value

OS:SpaceType,
  {a6906988-9327-4bcb-942d-c01bcdf693cc}, !- Handle
  GasStation|Restroom|DOE Ref Pre-1980|ASHRAE 169-2006-5A, !- Name
  {5dca6515-52a9-4fa4-bc4a-e924f4de4647}, !- Default Construction Set Name
  {c7fd4cc3-d932-4e0a-ba24-f973d2f41d6a}, !- Default Schedule Set Name
  {3ed1565a-0a9c-49ca-9677-2ac35488f3d7}, !- Group Rendering Name
  {d3347750-acaa-44ee-8d74-13bb4314a223}, !- Design Specification Outdoor Air Object Name
  GasStation,                             !- Standards Building Type
  Restroom;                               !- Standards Space Type

OS:Rendering:Color,
  {3ed1565a-0a9c-49ca-9677-2ac35488f3d7}, !- Handle
  Rendering Color 2,                      !- Name
  169,                                    !- Rendering Red Value
  169,                                    !- Rendering Green Value
  31;                                     !- Rendering Blue Value

OS:SpaceType,
  {21a86e82-8b7e-46b8-bfe3-5b18c98a2cb2}, !- Handle
  GasStation|ClosedOffice|DOE Ref Pre-1980|ASHRAE 169-2006-5A, !- Name
  {5dca6515-52a9-4fa4-bc4a-e924f4de4647}, !- Default Construction Set Name
  {ab53a719-7ed8-49aa-8458-85ba3b783a90}, !- Default Schedule Set Name
  {24df5d02-8c50-4dbc-9b15-b04c4628271f}, !- Group Rendering Name
  {9310bbba-e852-410c-a144-2b3042093df4}, !- Design Specification Outdoor Air Object Name
  GasStation,                             !- Standards Building Type
  ClosedOffice;                           !- Standards Space Type

OS:Rendering:Color,
  {24df5d02-8c50-4dbc-9b15-b04c4628271f}, !- Handle
  Rendering Color 3,                      !- Name
  120,                                    !- Rendering Red Value
  230,                                    !- Rendering Green Value
  199;                                    !- Rendering Blue Value

OS:Schedule:Ruleset,
  {2b5bf5b1-aae3-4fce-98e3-653c0ac7ee09}, !- Handle
  0600|2000|GasStation|default|hoo,       !- Name
  {5c1c521e-9a84-4e4f-9b21-f3c120869f01}, !- Schedule Type Limits Name
  {38e12da5-e45b-465e-88e0-3a9d77ba606b}, !- Default Day Schedule Name
  {70e5e013-4466-4f2e-9a26-4c9e073d44d3}, !- Summer Design Day Schedule Name
  {8e00ec76-27b8-4b49-bab3-cd7dc97731e0}; !- Winter Design Day Schedule Name

OS:Schedule:Day,
  {38e12da5-e45b-465e-88e0-3a9d77ba606b}, !- Handle
  0600|2000|GasStation|default|hoo Schedule Week Day, !- Name
  {5c1c521e-9a84-4e4f-9b21-f3c120869f01}, !- Schedule Type Limits Name
  ,                                       !- Interpolate to Timestep
  6,                                      !- Hour 1
  0,                                      !- Minute 1
  0,                                      !- Value Until Time 1
  20,                                     !- Hour 2
  0,                                      !- Minute 2
  1,                                      !- Value Until Time 2
  24,                                     !- Hour 3
  0,                                      !- Minute 3
  0;                                      !- Value Until Time 3

OS:Schedule:Day,
  {21a641e5-4dee-4b92-ab1a-29f5c8307904}, !- Handle
  Schedule Day 2,                         !- Name
  ,                                       !- Schedule Type Limits Name
  ,                                       !- Interpolate to Timestep
  24,                                     !- Hour 1
  0,                                      !- Minute 1
  0;                                      !- Value Until Time 1

OS:Schedule:Day,
  {8e00ec76-27b8-4b49-bab3-cd7dc97731e0}, !- Handle
  0600|2000|GasStation|default|hoo Winter Design Day, !- Name
  {5c1c521e-9a84-4e4f-9b21-f3c120869f01}, !- Schedule Type Limits Name
  ,                                       !- Interpolate to Timestep
  24,                                     !- Hour 1
  0,                                      !- Minute 1
  0;                                      !- Value Until Time 1

OS:Schedule:Day,
  {fcf68b92-a3d3-471f-8a7f-ec8dfab25dcd}, !- Handle
  Schedule Day 3,                         !- Name
  ,                                       !- Schedule Type Limits Name
  ,                                       !- Interpolate to Timestep
  24,                                     !- Hour 1
  0,                                      !- Minute 1
  0;                                      !- Value Until Time 1

OS:Schedule:Day,
  {70e5e013-4466-4f2e-9a26-4c9e073d44d3}, !- Handle
  0600|2000|GasStation|default|hoo Summer Design Day, !- Name
  {5c1c521e-9a84-4e4f-9b21-f3c120869f01}, !- Schedule Type Limits Name
  ,                                       !- Interpolate to Timestep
  24,                                     !- Hour 1
  0,                                      !- Minute 1
  1;                                      !- Value Until Time 1

OS:DefaultScheduleSet,
  {20d7b514-b637-4112-b880-d1d5b10a96bf}, !- Handle
  Building Hours of Operation,            !- Name
  {2b5bf5b1-aae3-4fce-98e3-653c0ac7ee09}, !- Hours of Operation Schedule Name
  ,                                       !- Number of People Schedule Name
  ,                                       !- People Activity Level Schedule Name
  ,                                       !- Lighting Schedule Name
  ,                                       !- Electric Equipment Schedule Name
  ,                                       !- Gas Equipment Schedule Name
  ,                                       !- Hot Water Equipment Schedule Name
  ,                                       !- Infiltration Schedule Name
  ,                                       !- Steam Equipment Schedule Name
  ;                                       !- Other Equipment Schedule Name

OS:ScheduleTypeLimits,
  {5c1c521e-9a84-4e4f-9b21-f3c120869f01}, !- Handle
  OnOff,                                  !- Name
  0,                                      !- Lower Limit Value {BasedOnField A4}
  1,                                      !- Upper Limit Value {BasedOnField A4}
  Discrete,                               !- Numeric Type
  Availability;                           !- Unit Type

OS:Schedule:Ruleset,
  {817fdd7e-540b-403e-9dae-4604a8aee494}, !- Handle
  0600|2000|GasStation|default|work_eff,  !- Name
  {90026782-83e8-4655-9e7e-3ea3457299e4}, !- Schedule Type Limits Name
  {681bf10a-c6b6-4b41-afc1-bac8481dcb6d}, !- Default Day Schedule Name
  {28781546-0c7a-4f6e-bd14-9875cf745e87}, !- Summer Design Day Schedule Name
  {37d42a1f-9b61-4cdc-a8ba-a155585fcfc9}; !- Winter Design Day Schedule Name

OS:ScheduleTypeLimits,
  {90026782-83e8-4655-9e7e-3ea3457299e4}, !- Handle
  Fraction Schedule Type Limits,          !- Name
  0,                                      !- Lower Limit Value {BasedOnField A4}
  1,                                      !- Upper Limit Value {BasedOnField A4}
  Continuous,                             !- Numeric Type
  Dimensionless;                          !- Unit Type

OS:Schedule:Day,
  {681bf10a-c6b6-4b41-afc1-bac8481dcb6d}, !- Handle
  0600|2000|GasStation|default|work_eff |default, !- Name
  {90026782-83e8-4655-9e7e-3ea3457299e4}, !- Schedule Type Limits Name
  ,                                       !- Interpolate to Timestep
  24,                                     !- Hour 1
  0,                                      !- Minute 1
  0;                                      !- Value Until Time 1

OS:Schedule:Day,
  {28781546-0c7a-4f6e-bd14-9875cf745e87}, !- Handle
  0600|2000|GasStation|default|work_eff Summer Design Day, !- Name
  {90026782-83e8-4655-9e7e-3ea3457299e4}, !- Schedule Type Limits Name
  ,                                       !- Interpolate to Timestep
  24,                                     !- Hour 1
  0,                                      !- Minute 1
  0;                                      !- Value Until Time 1

OS:Schedule:Day,
  {37d42a1f-9b61-4cdc-a8ba-a155585fcfc9}, !- Handle
  0600|2000|GasStation|default|work_eff Winter Design Day, !- Name
  {90026782-83e8-4655-9e7e-3ea3457299e4}, !- Schedule Type Limits Name
  ,                                       !- Interpolate to Timestep
  24,                                     !- Hour 1
  0,                                      !- Minute 1
  0;                                      !- Value Until Time 1

OS:Schedule:Ruleset,
  {472e52ce-8ead-4099-bda2-0935ce53ea09}, !- Handle
  0600|2000|GasStation|default|htg_setpoint, !- Name
  {311e1b20-8207-4277-91fb-027f25a9820f}, !- Schedule Type Limits Name
  {6419fb38-383d-45c7-a0e6-94a1bf4064ef}, !- Default Day Schedule Name
  {1e52c7b1-6b7c-4214-bf18-c8bde4fdc7f8}, !- Summer Design Day Schedule Name
  {30b3365a-4a3e-4665-b3ca-68d0c37bc386}; !- Winter Design Day Schedule Name

OS:ScheduleTypeLimits,
  {311e1b20-8207-4277-91fb-027f25a9820f}, !- Handle
  Thermostat Heating Setpoint Schedule Type Limits, !- Name
  0,                                      !- Lower Limit Value {BasedOnField A4}
  100,                                    !- Upper Limit Value {BasedOnField A4}
  Continuous,                             !- Numeric Type
  Temperature;                            !- Unit Type

OS:Schedule:Day,
  {6419fb38-383d-45c7-a0e6-94a1bf4064ef}, !- Handle
  0600|2000|GasStation|default|htg_setpoint |default, !- Name
  {311e1b20-8207-4277-91fb-027f25a9820f}, !- Schedule Type Limits Name
  ,                                       !- Interpolate to Timestep
  24,                                     !- Hour 1
  0,                                      !- Minute 1
  21.0000000000001;                       !- Value Until Time 1

OS:Schedule:Day,
  {1e52c7b1-6b7c-4214-bf18-c8bde4fdc7f8}, !- Handle
  0600|2000|GasStation|default|htg_setpoint Summer Design Day, !- Name
  {311e1b20-8207-4277-91fb-027f25a9820f}, !- Schedule Type Limits Name
  ,                                       !- Interpolate to Timestep
  24,                                     !- Hour 1
  0,                                      !- Minute 1
  21.0000000000001;                       !- Value Until Time 1

OS:Schedule:Day,
  {30b3365a-4a3e-4665-b3ca-68d0c37bc386}, !- Handle
  0600|2000|GasStation|default|htg_setpoint Winter Design Day, !- Name
  {311e1b20-8207-4277-91fb-027f25a9820f}, !- Schedule Type Limits Name
  ,                                       !- Interpolate to Timestep
  24,                                     !- Hour 1
  0,                                      !- Minute 1
  21.0000000000001;                       !- Value Until Time 1

OS:Schedule:Rule,
  {5d39e126-7cfe-4034-b6b1-2463c2763d7a}, !- Handle
  0600|2000|GasStation|default|htg_setpoint |1/1-12/31|Sun Rule, !- Name
  {472e52ce-8ead-4099-bda2-0935ce53ea09}, !- Schedule Ruleset Name
  0,                                      !- Rule Order
  {575779e2-bbe5-4b96-8cb9-eea1e9b2cc75}, !- Day Schedule Name
  Yes,                                    !- Apply Sunday
  ,                                       !- Apply Monday
  ,                                       !- Apply Tuesday
  ,                                       !- Apply Wednesday
  ,                                       !- Apply Thursday
  ,                                       !- Apply Friday
  ,                                       !- Apply Saturday
  ,                                       !- Apply Holiday
  DateRange,                              !- Date Specification Type
  1,                                      !- Start Month
  1,                                      !- Start Day
  12,                                     !- End Month
  31;                                     !- End Day

OS:Schedule:Day,
  {575779e2-bbe5-4b96-8cb9-eea1e9b2cc75}, !- Handle
  0600|2000|GasStation|default|htg_setpoint |1/1-12/31|Sun, !- Name
  {311e1b20-8207-4277-91fb-027f25a9820f}, !- Schedule Type Limits Name
  ,                                       !- Interpolate to Timestep
  24,                                     !- Hour 1
  0,                                      !- Minute 1
  21.0000000000001;                       !- Value Until Time 1

OS:Schedule:Rule,
  {dce321ce-6099-430c-ac8d-ee9a2b010d50}, !- Handle
  0600|2000|GasStation|default|htg_setpoint |1/1-12/31|Sat Rule, !- Name
  {472e52ce-8ead-4099-bda2-0935ce53ea09}, !- Schedule Ruleset Name
  1,                                      !- Rule Order
  {c2f6e816-e3f9-40ea-a5d2-611bafa143f8}, !- Day Schedule Name
  ,                                       !- Apply Sunday
  ,                                       !- Apply Monday
  ,                                       !- Apply Tuesday
  ,                                       !- Apply Wednesday
  ,                                       !- Apply Thursday
  ,                                       !- Apply Friday
  Yes,                                    !- Apply Saturday
  ,                                       !- Apply Holiday
  DateRange,                              !- Date Specification Type
  1,                                      !- Start Month
  1,                                      !- Start Day
  12,                                     !- End Month
  31;                                     !- End Day

OS:Schedule:Day,
  {c2f6e816-e3f9-40ea-a5d2-611bafa143f8}, !- Handle
  0600|2000|GasStation|default|htg_setpoint |1/1-12/31|Sat, !- Name
  {311e1b20-8207-4277-91fb-027f25a9820f}, !- Schedule Type Limits Name
  ,                                       !- Interpolate to Timestep
  24,                                     !- Hour 1
  0,                                      !- Minute 1
  21.0000000000001;                       !- Value Until Time 1

OS:Schedule:Ruleset,
  {35af152a-3ff3-4eee-b3d1-829eb085b2ba}, !- Handle
  0600|2000|GasStation|Retail|occ,        !- Name
  {910971c5-f985-41e0-855d-ac561666de8b}, !- Schedule Type Limits Name
  {bde23af5-03a2-442b-a8eb-65647dd7a6e6}, !- Default Day Schedule Name
  {69169c95-225e-4478-880c-cc6215e77a90}, !- Summer Design Day Schedule Name
  {8304ca52-7dec-4fc3-85cd-c4823173dc7a}; !- Winter Design Day Schedule Name

OS:ScheduleTypeLimits,
  {910971c5-f985-41e0-855d-ac561666de8b}, !- Handle
  Occupancy Schedule Type Limits,         !- Name
  0,                                      !- Lower Limit Value {BasedOnField A4}
  1,                                      !- Upper Limit Value {BasedOnField A4}
  Continuous,                             !- Numeric Type
  Dimensionless;                          !- Unit Type

OS:Schedule:Day,
  {bde23af5-03a2-442b-a8eb-65647dd7a6e6}, !- Handle
  0600|2000|GasStation|Retail|occ |default, !- Name
  {910971c5-f985-41e0-855d-ac561666de8b}, !- Schedule Type Limits Name
  ,                                       !- Interpolate to Timestep
  6,                                      !- Hour 1
  0,                                      !- Minute 1
  0,                                      !- Value Until Time 1
  7,                                      !- Hour 2
  0,                                      !- Minute 2
  0.1,                                    !- Value Until Time 2
  8,                                      !- Hour 3
  0,                                      !- Minute 3
  0.2,                                    !- Value Until Time 3
  10,                                     !- Hour 4
  0,                                      !- Minute 4
  0.5,                                    !- Value Until Time 4
  14,                                     !- Hour 5
  0,                                      !- Minute 5
  0.7,                                    !- Value Until Time 5
  15,                                     !- Hour 6
  0,                                      !- Minute 6
  0.8,                                    !- Value Until Time 6
  16,                                     !- Hour 7
  0,                                      !- Minute 7
  0.7,                                    !- Value Until Time 7
  18,                                     !- Hour 8
  0,                                      !- Minute 8
  0.5,                                    !- Value Until Time 8
  20,                                     !- Hour 9
  0,                                      !- Minute 9
  0.3,                                    !- Value Until Time 9
  24,                                     !- Hour 10
  0,                                      !- Minute 10
  0;                                      !- Value Until Time 10

OS:Schedule:Day,
  {69169c95-225e-4478-880c-cc6215e77a90}, !- Handle
  0600|2000|GasStation|Retail|occ Summer Design Day, !- Name
  {910971c5-f985-41e0-855d-ac561666de8b}, !- Schedule Type Limits Name
  ,                                       !- Interpolate to Timestep
  6,                                      !- Hour 1
  0,                                      !- Minute 1
  0,                                      !- Value Until Time 1
  7,                                      !- Hour 2
  0,                                      !- Minute 2
  0.1,                                    !- Value Until Time 2
  8,                                      !- Hour 3
  0,                                      !- Minute 3
  0.2,                                    !- Value Until Time 3
  20,                                     !- Hour 4
  0,                                      !- Minute 4
  1,                                      !- Value Until Time 4
  24,                                     !- Hour 5
  0,                                      !- Minute 5
  0;                                      !- Value Until Time 5

OS:Schedule:Day,
  {8304ca52-7dec-4fc3-85cd-c4823173dc7a}, !- Handle
  0600|2000|GasStation|Retail|occ Winter Design Day, !- Name
  {910971c5-f985-41e0-855d-ac561666de8b}, !- Schedule Type Limits Name
  ,                                       !- Interpolate to Timestep
  24,                                     !- Hour 1
  0,                                      !- Minute 1
  0;                                      !- Value Until Time 1

OS:Schedule:Rule,
  {e0bad725-1180-486f-8dc5-c035c079f780}, !- Handle
  0600|2000|GasStation|Retail|occ |1/1-12/31|Sat Rule, !- Name
  {35af152a-3ff3-4eee-b3d1-829eb085b2ba}, !- Schedule Ruleset Name
  0,                                      !- Rule Order
  {4ed20fb2-37af-44e3-8076-fa1e95cffe1a}, !- Day Schedule Name
  ,                                       !- Apply Sunday
  ,                                       !- Apply Monday
  ,                                       !- Apply Tuesday
  ,                                       !- Apply Wednesday
  ,                                       !- Apply Thursday
  ,                                       !- Apply Friday
  Yes,                                    !- Apply Saturday
  ,                                       !- Apply Holiday
  DateRange,                              !- Date Specification Type
  1,                                      !- Start Month
  1,                                      !- Start Day
  12,                                     !- End Month
  31;                                     !- End Day

OS:Schedule:Day,
  {4ed20fb2-37af-44e3-8076-fa1e95cffe1a}, !- Handle
  0600|2000|GasStation|Retail|occ |1/1-12/31|Sat, !- Name
  {910971c5-f985-41e0-855d-ac561666de8b}, !- Schedule Type Limits Name
  ,                                       !- Interpolate to Timestep
  6,                                      !- Hour 1
  0,                                      !- Minute 1
  0,                                      !- Value Until Time 1
  7,                                      !- Hour 2
  0,                                      !- Minute 2
  0.1,                                    !- Value Until Time 2
  8,                                      !- Hour 3
  0,                                      !- Minute 3
  0.2,                                    !- Value Until Time 3
  9,                                      !- Hour 4
  0,                                      !- Minute 4
  0.5,                                    !- Value Until Time 4
  10,                                     !- Hour 5
  0,                                      !- Minute 5
  0.6,                                    !- Value Until Time 5
  16,                                     !- Hour 6
  0,                                      !- Minute 6
  0.8,                                    !- Value Until Time 6
  17,                                     !- Hour 7
  0,                                      !- Minute 7
  0.6,                                    !- Value Until Time 7
  20,                                     !- Hour 8
  0,                                      !- Minute 8
  0.2,                                    !- Value Until Time 8
  21,                                     !- Hour 9
  0,                                      !- Minute 9
  0.1,                                    !- Value Until Time 9
  24,                                     !- Hour 10
  0,                                      !- Minute 10
  0;                                      !- Value Until Time 10

OS:Schedule:Rule,
  {8464cb27-3b30-4e61-93ce-362339f3bbea}, !- Handle
  0600|2000|GasStation|Retail|occ |1/1-12/31|Sun Rule, !- Name
  {35af152a-3ff3-4eee-b3d1-829eb085b2ba}, !- Schedule Ruleset Name
  1,                                      !- Rule Order
  {9dbbc3f3-8aaf-4427-8d3d-d6f08263dce8}, !- Day Schedule Name
  Yes,                                    !- Apply Sunday
  ,                                       !- Apply Monday
  ,                                       !- Apply Tuesday
  ,                                       !- Apply Wednesday
  ,                                       !- Apply Thursday
  ,                                       !- Apply Friday
  ,                                       !- Apply Saturday
  ,                                       !- Apply Holiday
  DateRange,                              !- Date Specification Type
  1,                                      !- Start Month