
OS:Version,
  {f94ad2a3-83ab-42c5-9bf8-60bdeedd1148}, !- Handle
  1.5.5;                                  !- Version Identifier

OS:ClimateZones,
  {135edfab-17e7-40db-a436-27d385a8cd6d}, !- Handle
  ,                                       !- Active Institution
  ,                                       !- Active Year
  ASHRAE,                                 !- Climate Zone Institution Name 1
  ANSI/ASHRAE Standard 169,               !- Climate Zone Document Name 1
  2006,                                   !- Climate Zone Document Year 1
  ,                                       !- Climate Zone Value 1
  CEC,                                    !- Climate Zone Institution Name 2
  California Climate Zone Descriptions,   !- Climate Zone Document Name 2
  1995,                                   !- Climate Zone Document Year 2
  ;                                       !- Climate Zone Value 2

OS:YearDescription,
  {513d8dda-86cb-442a-b01c-1f7f0e0ac70e}; !- Handle

OS:RadianceParameters,
  {270a96f1-3c86-4b75-a667-cdf22790e2c8}, !- Handle
  1,                                      !- Accumulated Rays per Record
  0,                                      !- Direct Threshold
  1,                                      !- Direct Certainty
  1,                                      !- Direct Jitter
  1,                                      !- Direct Pretest
  6,                                      !- Ambient Bounces VMX
  2,                                      !- Ambient Bounces DMX
  4050,                                   !- Ambient Divisions VMX
  512,                                    !- Ambient Divisions DMX
  256,                                    !- Ambient Supersamples
  0.001,                                  !- Limit Weight VMX
  0.001,                                  !- Limit Weight DMX
  500,                                    !- Klems Sampling Density
  146;                                    !- Sky Discretization Resolution

OS:SimulationControl,
  {2c487a4c-bac9-4ac5-b669-1e49d9da7c2b}, !- Handle
  ,                                       !- Do Zone Sizing Calculation
  ,                                       !- Do System Sizing Calculation
  ,                                       !- Do Plant Sizing Calculation
  No,                                     !- Run Simulation for Sizing Periods
  ,                                       !- Run Simulation for Weather File Run Periods
  0.04,                                   !- Loads Convergence Tolerance Value
  ,                                       !- Temperature Convergence Tolerance Value {deltaC}
  ,                                       !- Solar Distribution
  ,                                       !- Maximum Number of Warmup Days
  2;                                      !- Minimum Number of Warmup Days

OS:Sizing:Parameters,
  {dde5af6f-7923-4600-a28a-7556673a0266}, !- Handle
  1.25,                                   !- Heating Sizing Factor
  1.15;                                   !- Cooling Sizing Factor

OS:ProgramControl,
  {05027a99-f2b3-4aeb-afc6-1425fbb4371d}; !- Handle

OS:Timestep,
  {4ebc9f1e-4707-402e-9844-67eb1ffbd522}, !- Handle
  2;                                      !- Number of Timesteps per Hour

OS:OutputControl:ReportingTolerances,
  {65797aa2-06a9-45fe-b69d-bc6e060399d3}; !- Handle

OS:ConvergenceLimits,
  {9fc11aba-8822-4f3d-970c-46391ba4040d}; !- Handle

OS:ShadowCalculation,
  {ca758bea-4416-4626-9bba-3d8795c79bd6}, !- Handle
  7,                                      !- Calculation Frequency
  15000;                                  !- Maximum Figures in Shadow Overlap Calculations

OS:SurfaceConvectionAlgorithm:Inside,
  {aaabfc36-718a-4ab0-b622-f186ebb45230}, !- Handle
  TARP;                                   !- Algorithm

OS:SurfaceConvectionAlgorithm:Outside,
  {9a0a9f6f-4bbd-4b12-a121-9492a1fcd7d6}, !- Handle
  DOE-2;                                  !- Algorithm

OS:HeatBalanceAlgorithm,
  {9d93e563-e1e0-46d7-9e39-d1c8aceb7212}, !- Handle
  ConductionTransferFunction,             !- Algorithm
  200;                                    !- Surface Temperature Upper Limit {F}

OS:ZoneAirHeatBalanceAlgorithm,
  {8520d93e-310f-4696-9bcd-36228bfdd743}, !- Handle
  AnalyticalSolution;                     !- Algorithm

OS:ZoneAirContaminantBalance,
  {eb5fc3ae-fb22-4160-8fcb-3e3b22b000d3}; !- Handle

OS:ZoneCapacitanceMultiplier:ResearchSpecial,
  {4020ce4f-5a7a-4849-8028-8305d7b751b1}, !- Handle
  ,                                       !- Temperature Capacity Multiplier
  ,                                       !- Humidity Capacity Multiplier
  ;                                       !- Carbon Dioxide Capacity Multiplier

OS:RunPeriod,
  {28df894d-6af9-4fb8-8f56-df1753344aa3}, !- Handle
  Run Period 1,                           !- Name
  1,                                      !- Begin Month
  1,                                      !- Begin Day of Month
  12,                                     !- End Month
  31,                                     !- End Day of Month
  ,                                       !- Use Weather File Holidays and Special Days
  ,                                       !- Use Weather File Daylight Saving Period
  ,                                       !- Apply Weekend Holiday Rule
  ,                                       !- Use Weather File Rain Indicators
  ,                                       !- Use Weather File Snow Indicators
  ;                                       !- Number of Times Runperiod to be Repeated

OS:Building,
  {bf305633-c5a1-4881-9edf-ca5e1a8e1274}, !- Handle
  Building 1,                             !- Name
  ,                                       !- Building Sector Type
  ,                                       !- North Axis {deg}
  ,                                       !- Nominal Floor to Floor Height {m}
  ,                                       !- Space Type Name
  ,                                       !- Default Construction Set Name
  {cbf94093-4934-4b5c-b3fa-9a99d7ad5b96}, !- Default Schedule Set Name
  ,                                       !- Standards Number of Stories
  ,                                       !- Standards Number of Above Ground Stories
  GasStation;                             !- Standards Building Type

OS:LifeCycleCost:Parameters,
  {231cf8a0-f0e7-4251-a99f-11f0d464e661}, !- Handle
  FEMP,                                   !- Analysis Type
  ,                                       !- Discounting Convention
  ,                                       !- Inflation Approach
  ,                                       !- Real Discount Rate
  ,                                       !- Nominal Discount Rate
  ,                                       !- Inflation
  ,                                       !- Base Date Month
  ,                                       !- Base Date Year
  ,                                       !- Service Date Month
  ,                                       !- Service Date Year
  ,                                       !- Length of Study Period in Years
  ,                                       !- Tax Rate
  ,                                       !- Depreciation Method
  Yes;                                    !- Use NIST Fuel Escalation Rates

OS:Facility,
  {3ba8e45b-b833-44eb-a723-ea6c3946dc96}; !- Handle

OS:SpaceType,
  {65c7772f-e3b2-459a-906f-c6ba65097c57}, !- Handle
  GasStation|Retail|DOE Ref 1980-2004|ASHRAE 169-2006-5A, !- Name
  {950ef8b4-3f52-44d1-94f0-5a0f9ad698ca}, !- Default Construction Set Name
  {b4c19e42-f8df-4600-8d72-3993a2c97ac9}, !- Default Schedule Set Name
  {1c1113bd-8b3f-4e56-9dca-a0e8412b9038}, !- Group Rendering Name
  {5ec36b3d-d75f-4bd2-aa93-eb348207ebcf}, !- Design Specification Outdoor Air Object Name
  GasStation,                             !- Standards Building Type
  Retail;                                 !- Standards Space Type

OS:Rendering:Color,
  {1c1113bd-8b3f-4e56-9dca-a0e8412b9038}, !- Handle
  Rendering Color 1,                      !- Name
  171,                                    !- Rendering Red Value
  222,                                    !- Rendering Green Value
  78;                                     !- Rendering Blue Value

OS:SpaceType,
  {f0f242b0-608e-483e-b772-2fe343782b15}, !- Handle
  GasStation|Restroom|DOE Ref 1980-2004|ASHRAE 169-2006-5A, !- Name
  {950ef8b4-3f52-44d1-94f0-5a0f9ad698ca}, !- Default Construction Set Name
  {d389c078-4bb8-4488-9b41-a653bd551520}, !- Default Schedule Set Name
  {13521174-bf88-4c0a-a263-02477c98852f}, !- Group Rendering Name
  {28598c85-a929-488e-8682-9276ad0ddcd7}, !- Design Specification Outdoor Air Object Name
  GasStation,                             !- Standards Building Type
  Restroom;                               !- Standards Space Type

OS:Rendering:Color,
  {13521174-bf88-4c0a-a263-02477c98852f}, !- Handle
  Rendering Color 2,                      !- Name
  169,                                    !- Rendering Red Value
  169,                                    !- Rendering Green Value
  31;                                     !- Rendering Blue Value

OS:SpaceType,
  {93631f4e-1080-4413-9909-f3742daaae3d}, !- Handle
  GasStation|ClosedOffice|DOE Ref 1980-2004|ASHRAE 169-2006-5A, !- Name
  {950ef8b4-3f52-44d1-94f0-5a0f9ad698ca}, !- Default Construction Set Name
  {bfe9fd4d-b89f-4219-8e2b-ea63fc23f174}, !- Default Schedule Set Name
  {1d23fdbe-29bd-43e2-9711-739c7ba7ba68}, !- Group Rendering Name
  {d3361ae7-3049-48bb-af72-b5cb3b494690}, !- Design Specification Outdoor Air Object Name
  GasStation,                             !- Standards Building Type
  ClosedOffice;                           !- Standards Space Type

OS:Rendering:Color,
  {1d23fdbe-29bd-43e2-9711-739c7ba7ba68}, !- Handle
  Rendering Color 3,                      !- Name
  120,                                    !- Rendering Red Value
  230,                                    !- Rendering Green Value
  199;                                    !- Rendering Blue Value

OS:Schedule:Ruleset,
  {b1146a88-22af-4b26-82c2-e7ecf80f41a9}, !- Handle
  0600|2000|GasStation|default|hoo,       !- Name
  {75c9f6ab-1df1-4960-afa4-c445a49b5cde}, !- Schedule Type Limits Name
  {e86070d2-1e1a-4296-9fb4-f48ec1c2d33f}, !- Default Day Schedule Name
  {32fb73f2-92ce-4b4a-83a2-15e97a93c815}, !- Summer Design Day Schedule Name
  {65f9d856-a2e4-40e7-ad8b-eb987c93fdb4}; !- Winter Design Day Schedule Name

OS:Schedule:Day,
  {e86070d2-1e1a-4296-9fb4-f48ec1c2d33f}, !- Handle
  0600|2000|GasStation|default|hoo Schedule Week Day, !- Name
  {75c9f6ab-1df1-4960-afa4-c445a49b5cde}, !- Schedule Type Limits Name
  ,                                       !- Interpolate to Timestep
  6,                                      !- Hour 1
  0,                                      !- Minute 1
  0,                                      !- Value Until Time 1
  20,                                     !- Hour 2
  0,                                      !- Minute 2
  1,                                      !- Value Until Time 2
  24,                                     !- Hour 3
  0,                                      !- Minute 3
  0;                                      !- Value Until Time 3

OS:Schedule:Day,
  {d034a790-34ff-4e31-acbc-bb4a2abc0ce9}, !- Handle
  Schedule Day 2,                         !- Name
  ,                                       !- Schedule Type Limits Name
  ,                                       !- Interpolate to Timestep
  24,                                     !- Hour 1
  0,                                      !- Minute 1
  0;                                      !- Value Until Time 1

OS:Schedule:Day,
  {65f9d856-a2e4-40e7-ad8b-eb987c93fdb4}, !- Handle
  0600|2000|GasStation|default|hoo Winter Design Day, !- Name
  {75c9f6ab-1df1-4960-afa4-c445a49b5cde}, !- Schedule Type Limits Name
  ,                                       !- Interpolate to Timestep
  24,                                     !- Hour 1
  0,                                      !- Minute 1
  0;                                      !- Value Until Time 1

OS:Schedule:Day,
  {7ef75d88-e1c5-4181-8957-415a73fe5d99}, !- Handle
  Schedule Day 3,                         !- Name
  ,                                       !- Schedule Type Limits Name
  ,                                       !- Interpolate to Timestep
  24,                                     !- Hour 1
  0,                                      !- Minute 1
  0;                                      !- Value Until Time 1

OS:Schedule:Day,
  {32fb73f2-92ce-4b4a-83a2-15e97a93c815}, !- Handle
  0600|2000|GasStation|default|hoo Summer Design Day, !- Name
  {75c9f6ab-1df1-4960-afa4-c445a49b5cde}, !- Schedule Type Limits Name
  ,                                       !- Interpolate to Timestep
  24,                                     !- Hour 1
  0,                                      !- Minute 1
  1;                                      !- Value Until Time 1

OS:DefaultScheduleSet,
  {cbf94093-4934-4b5c-b3fa-9a99d7ad5b96}, !- Handle
  Building Hours of Operation,            !- Name
  {b1146a88-22af-4b26-82c2-e7ecf80f41a9}, !- Hours of Operation Schedule Name
  ,                                       !- Number of People Schedule Name
  ,                                       !- People Activity Level Schedule Name
  ,                                       !- Lighting Schedule Name
  ,                                       !- Electric Equipment Schedule Name
  ,                                       !- Gas Equipment Schedule Name
  ,                                       !- Hot Water Equipment Schedule Name
  ,                                       !- Infiltration Schedule Name
  ,                                       !- Steam Equipment Schedule Name
  ;                                       !- Other Equipment Schedule Name

OS:ScheduleTypeLimits,
  {75c9f6ab-1df1-4960-afa4-c445a49b5cde}, !- Handle
  OnOff,                                  !- Name
  0,                                      !- Lower Limit Value {BasedOnField A4}
  1,                                      !- Upper Limit Value {BasedOnField A4}
  Discrete,                               !- Numeric Type
  Availability;                           !- Unit Type

OS:Schedule:Ruleset,
  {948e71d2-5ed6-45df-b3b9-550245fca8d5}, !- Handle
  0600|2000|GasStation|default|work_eff,  !- Name
  {f34aabf6-a009-4977-896b-c7a0aa34c057}, !- Schedule Type Limits Name
  {183dd9de-947e-4d36-8be2-92b8257019bd}, !- Default Day Schedule Name
  {aecbec42-5018-49bc-a280-117887a4fe3c}, !- Summer Design Day Schedule Name
  {8ca16788-e79a-40e5-90a4-dc7a226f9bff}; !- Winter Design Day Schedule Name

OS:ScheduleTypeLimits,
  {f34aabf6-a009-4977-896b-c7a0aa34c057}, !- Handle
  Fraction Schedule Type Limits,          !- Name
  0,                                      !- Lower Limit Value {BasedOnField A4}
  1,                                      !- Upper Limit Value {BasedOnField A4}
  Continuous,                             !- Numeric Type
  Dimensionless;                          !- Unit Type

OS:Schedule:Day,
  {183dd9de-947e-4d36-8be2-92b8257019bd}, !- Handle
  0600|2000|GasStation|default|work_eff |default, !- Name
  {f34aabf6-a009-4977-896b-c7a0aa34c057}, !- Schedule Type Limits Name
  ,                                       !- Interpolate to Timestep
  24,                                     !- Hour 1
  0,                                      !- Minute 1
  0;                                      !- Value Until Time 1

OS:Schedule:Day,
  {aecbec42-5018-49bc-a280-117887a4fe3c}, !- Handle
  0600|2000|GasStation|default|work_eff Summer Design Day, !- Name
  {f34aabf6-a009-4977-896b-c7a0aa34c057}, !- Schedule Type Limits Name
  ,                                       !- Interpolate to Timestep
  24,                                     !- Hour 1
  0,                                      !- Minute 1
  0;                                      !- Value Until Time 1

OS:Schedule:Day,
  {8ca16788-e79a-40e5-90a4-dc7a226f9bff}, !- Handle
  0600|2000|GasStation|default|work_eff Winter Design Day, !- Name
  {f34aabf6-a009-4977-896b-c7a0aa34c057}, !- Schedule Type Limits Name
  ,                                       !- Interpolate to Timestep
  24,                                     !- Hour 1
  0,                                      !- Minute 1
  0;                                      !- Value Until Time 1

OS:Schedule:Ruleset,
  {1d2294cc-b1c9-4c1d-bb9b-6225de794f65}, !- Handle
  0600|2000|GasStation|default|htg_setpoint, !- Name
  {b7a66455-f5f8-40ed-a29f-b06a74e3c153}, !- Schedule Type Limits Name
  {c01523b5-d9e2-4b69-b43d-9a8293879381}, !- Default Day Schedule Name
  {6aea29e2-4176-4b54-ab24-21d3913b1a35}, !- Summer Design Day Schedule Name
  {b3343de1-15ab-4737-8ec8-ebf8f0d301a0}; !- Winter Design Day Schedule Name

OS:ScheduleTypeLimits,
  {b7a66455-f5f8-40ed-a29f-b06a74e3c153}, !- Handle
  Thermostat Heating Setpoint Schedule Type Limits, !- Name
  0,                                      !- Lower Limit Value {BasedOnField A4}
  100,                                    !- Upper Limit Value {BasedOnField A4}
  Continuous,                             !- Numeric Type
  Temperature;                            !- Unit Type

OS:Schedule:Day,
  {c01523b5-d9e2-4b69-b43d-9a8293879381}, !- Handle
  0600|2000|GasStation|default|htg_setpoint |default, !- Name
  {b7a66455-f5f8-40ed-a29f-b06a74e3c153}, !- Schedule Type Limits Name
  ,                                       !- Interpolate to Timestep
  24,                                     !- Hour 1
  0,                                      !- Minute 1
  21.0000000000001;                       !- Value Until Time 1

OS:Schedule:Day,
  {6aea29e2-4176-4b54-ab24-21d3913b1a35}, !- Handle
  0600|2000|GasStation|default|htg_setpoint Summer Design Day, !- Name
  {b7a66455-f5f8-40ed-a29f-b06a74e3c153}, !- Schedule Type Limits Name
  ,                                       !- Interpolate to Timestep
  24,                                     !- Hour 1
  0,                                      !- Minute 1
  21.0000000000001;                       !- Value Until Time 1

OS:Schedule:Day,
  {b3343de1-15ab-4737-8ec8-ebf8f0d301a0}, !- Handle
  0600|2000|GasStation|default|htg_setpoint Winter Design Day, !- Name
  {b7a66455-f5f8-40ed-a29f-b06a74e3c153}, !- Schedule Type Limits Name
  ,                                       !- Interpolate to Timestep
  24,                                     !- Hour 1
  0,                                      !- Minute 1
  21.0000000000001;                       !- Value Until Time 1

OS:Schedule:Rule,
  {ec34be8e-06b9-4ce6-94ce-289de84a070c}, !- Handle
  0600|2000|GasStation|default|htg_setpoint |1/1-12/31|Sun Rule, !- Name
  {1d2294cc-b1c9-4c1d-bb9b-6225de794f65}, !- Schedule Ruleset Name
  0,                                      !- Rule Order
  {0061f6c5-a105-4c53-a0ee-3d7aa2a54ccc}, !- Day Schedule Name
  Yes,                                    !- Apply Sunday
  ,                                       !- Apply Monday
  ,                                       !- Apply Tuesday
  ,                                       !- Apply Wednesday
  ,                                       !- Apply Thursday
  ,                                       !- Apply Friday
  ,                                       !- Apply Saturday
  ,                                       !- Apply Holiday
  DateRange,                              !- Date Specification Type
  1,                                      !- Start Month
  1,                                      !- Start Day
  12,                                     !- End Month
  31;                                     !- End Day

OS:Schedule:Day,
  {0061f6c5-a105-4c53-a0ee-3d7aa2a54ccc}, !- Handle
  0600|2000|GasStation|default|htg_setpoint |1/1-12/31|Sun, !- Name
  {b7a66455-f5f8-40ed-a29f-b06a74e3c153}, !- Schedule Type Limits Name
  ,                                       !- Interpolate to Timestep
  24,                                     !- Hour 1
  0,                                      !- Minute 1
  21.0000000000001;                       !- Value Until Time 1

OS:Schedule:Rule,
  {2c925b47-0b1d-4411-9eb0-18b033cdbeef}, !- Handle
  0600|2000|GasStation|default|htg_setpoint |1/1-12/31|Sat Rule, !- Name
  {1d2294cc-b1c9-4c1d-bb9b-6225de794f65}, !- Schedule Ruleset Name
  1,                                      !- Rule Order
  {8e5cf9eb-b3cb-4da7-87f3-d57e082f921d}, !- Day Schedule Name
  ,                                       !- Apply Sunday
  ,                                       !- Apply Monday
  ,                                       !- Apply Tuesday
  ,                                       !- Apply Wednesday
  ,                                       !- Apply Thursday
  ,                                       !- Apply Friday
  Yes,                                    !- Apply Saturday
  ,                                       !- Apply Holiday
  DateRange,                              !- Date Specification Type
  1,                                      !- Start Month
  1,                                      !- Start Day
  12,                                     !- End Month
  31;                                     !- End Day

OS:Schedule:Day,
  {8e5cf9eb-b3cb-4da7-87f3-d57e082f921d}, !- Handle
  0600|2000|GasStation|default|htg_setpoint |1/1-12/31|Sat, !- Name
  {b7a66455-f5f8-40ed-a29f-b06a74e3c153}, !- Schedule Type Limits Name
  ,                                       !- Interpolate to Timestep
  24,                                     !- Hour 1
  0,                                      !- Minute 1
  21.0000000000001;                       !- Value Until Time 1

OS:Schedule:Ruleset,
  {0a7a0d31-f78f-49ac-ab4d-5b022b033087}, !- Handle
  0600|2000|GasStation|Retail|occ,        !- Name
  {94b25b77-a997-469c-a2ea-2d963d065f7e}, !- Schedule Type Limits Name
  {9ad4c3d2-ea89-4a46-8042-e9bbce838c93}, !- Default Day Schedule Name
  {17fde540-d9e0-4850-9498-6b5518060843}, !- Summer Design Day Schedule Name
  {f62e53ac-5194-4374-aa49-76cdd872b0a9}; !- Winter Design Day Schedule Name

OS:ScheduleTypeLimits,
  {94b25b77-a997-469c-a2ea-2d963d065f7e}, !- Handle
  Occupancy Schedule Type Limits,         !- Name
  0,                                      !- Lower Limit Value {BasedOnField A4}
  1,                                      !- Upper Limit Value {BasedOnField A4}
  Continuous,                             !- Numeric Type
  Dimensionless;                          !- Unit Type

OS:Schedule:Day,
  {9ad4c3d2-ea89-4a46-8042-e9bbce838c93}, !- Handle
  0600|2000|GasStation|Retail|occ |default, !- Name
  {94b25b77-a997-469c-a2ea-2d963d065f7e}, !- Schedule Type Limits Name
  ,                                       !- Interpolate to Timestep
  6,                                      !- Hour 1
  0,                                      !- Minute 1
  0,                                      !- Value Until Time 1
  7,                                      !- Hour 2
  0,                                      !- Minute 2
  0.1,                                    !- Value Until Time 2
  8,                                      !- Hour 3
  0,                                      !- Minute 3
  0.2,                                    !- Value Until Time 3
  10,                                     !- Hour 4
  0,                                      !- Minute 4
  0.5,                                    !- Value Until Time 4
  14,                                     !- Hour 5
  0,                                      !- Minute 5
  0.7,                                    !- Value Until Time 5
  15,                                     !- Hour 6
  0,                                      !- Minute 6
  0.8,                                    !- Value Until Time 6
  16,                                     !- Hour 7
  0,                                      !- Minute 7
  0.7,                                    !- Value Until Time 7
  18,                                     !- Hour 8
  0,                                      !- Minute 8
  0.5,                                    !- Value Until Time 8
  20,                                     !- Hour 9
  0,                                      !- Minute 9
  0.3,                                    !- Value Until Time 9
  24,                                     !- Hour 10
  0,                                      !- Minute 10
  0;                                      !- Value Until Time 10

OS:Schedule:Day,
  {17fde540-d9e0-4850-9498-6b5518060843}, !- Handle
  0600|2000|GasStation|Retail|occ Summer Design Day, !- Name
  {94b25b77-a997-469c-a2ea-2d963d065f7e}, !- Schedule Type Limits Name
  ,                                       !- Interpolate to Timestep
  6,                                      !- Hour 1
  0,                                      !- Minute 1
  0,                                      !- Value Until Time 1
  7,                                      !- Hour 2
  0,                                      !- Minute 2
  0.1,                                    !- Value Until Time 2
  8,                                      !- Hour 3
  0,                                      !- Minute 3
  0.2,                                    !- Value Until Time 3
  20,                                     !- Hour 4
  0,                                      !- Minute 4
  1,                                      !- Value Until Time 4
  24,                                     !- Hour 5
  0,                                      !- Minute 5
  0;                                      !- Value Until Time 5

OS:Schedule:Day,
  {f62e53ac-5194-4374-aa49-76cdd872b0a9}, !- Handle
  0600|2000|GasStation|Retail|occ Winter Design Day, !- Name
  {94b25b77-a997-469c-a2ea-2d963d065f7e}, !- Schedule Type Limits Name
  ,                                       !- Interpolate to Timestep
  24,                                     !- Hour 1
  0,                                      !- Minute 1
  0;                                      !- Value Until Time 1

OS:Schedule:Rule,
  {aa3c6485-8a77-46c6-92db-051478c1f0a2}, !- Handle
  0600|2000|GasStation|Retail|occ |1/1-12/31|Sat Rule, !- Name
  {0a7a0d31-f78f-49ac-ab4d-5b022b033087}, !- Schedule Ruleset Name
  0,                                      !- Rule Order
  {8a8533dd-c341-4e07-a93a-be5b8ec1f7bf}, !- Day Schedule Name
  ,                                       !- Apply Sunday
  ,                                       !- Apply Monday
  ,                                       !- Apply Tuesday
  ,                                       !- Apply Wednesday
  ,                                       !- Apply Thursday
  ,                                       !- Apply Friday
  Yes,                                    !- Apply Saturday
  ,                                       !- Apply Holiday
  DateRange,                              !- Date Specification Type
  1,                                      !- Start Month
  1,                                      !- Start Day
  12,                                     !- End Month
  31;                                     !- End Day

OS:Schedule:Day,
  {8a8533dd-c341-4e07-a93a-be5b8ec1f7bf}, !- Handle
  0600|2000|GasStation|Retail|occ |1/1-12/31|Sat, !- Name
  {94b25b77-a997-469c-a2ea-2d963d065f7e}, !- Schedule Type Limits Name
  ,                                       !- Interpolate to Timestep
  6,                                      !- Hour 1
  0,                                      !- Minute 1
  0,                                      !- Value Until Time 1
  7,                                      !- Hour 2
  0,                                      !- Minute 2
  0.1,                                    !- Value Until Time 2
  8,                                      !- Hour 3
  0,                                      !- Minute 3
  0.2,                                    !- Value Until Time 3
  9,                                      !- Hour 4
  0,                                      !- Minute 4
  0.5,                                    !- Value Until Time 4
  10,                                     !- Hour 5
  0,                                      !- Minute 5
  0.6,                                    !- Value Until Time 5
  16,                                     !- Hour 6
  0,                                      !- Minute 6
  0.8,                                    !- Value Until Time 6
  17,                                     !- Hour 7
  0,                                      !- Minute 7
  0.6,                                    !- Value Until Time 7
  20,                                     !- Hour 8
  0,                                      !- Minute 8
  0.2,                                    !- Value Until Time 8
  21,                                     !- Hour 9
  0,                                      !- Minute 9
  0.1,                                    !- Value Until Time 9
  24,                                     !- Hour 10
  0,                                      !- Minute 10
  0;                                      !- Value Until Time 10

OS:Schedule:Rule,
  {489e6f39-ce3e-47de-a518-6e834657e056}, !- Handle
  0600|2000|GasStation|Retail|occ |1/1-12/31|Sun Rule, !- Name
  {0a7a0d31-f78f-49ac-ab4d-5b022b033087}, !- Schedule Ruleset Name
  1,                                      !- Rule Order
  {a7fbb736-cf7d-415d-b2f5-cd1e19da88bd}, !- Day Schedule Name
  Yes,                                    !- Apply Sunday
  ,                                       !- Apply Monday
  ,                                       !- Apply Tuesday
  ,                                       !- Apply Wednesday
  ,                                       !- Apply Thursday
  ,                                       !- Apply Friday
  ,                                       !- Apply Saturday
  ,                                       !- Apply Holiday
  DateRange,                              !- Date Specification Type
  1,                                      !- Start Month