
OS:Version,
  {f6afbeb4-40b9-486f-8fad-8dfccfd4948f}, !- Handle
  1.6.0;                                  !- Version Identifier

OS:ClimateZones,
  {135edfab-17e7-40db-a436-27d385a8cd6d}, !- Handle
  ,                                       !- Active Institution
  ,                                       !- Active Year
  ASHRAE,                                 !- Climate Zone Institution Name 1
  ANSI/ASHRAE Standard 169,               !- Climate Zone Document Name 1
  2006,                                   !- Climate Zone Document Year 1
  ,                                       !- Climate Zone Value 1
  CEC,                                    !- Climate Zone Institution Name 2
  California Climate Zone Descriptions,   !- Climate Zone Document Name 2
  1995,                                   !- Climate Zone Document Year 2
  ;                                       !- Climate Zone Value 2

OS:YearDescription,
  {513d8dda-86cb-442a-b01c-1f7f0e0ac70e}; !- Handle

OS:RadianceParameters,
  {270a96f1-3c86-4b75-a667-cdf22790e2c8}, !- Handle
  1,                                      !- Accumulated Rays per Record
  0,                                      !- Direct Threshold
  1,                                      !- Direct Certainty
  1,                                      !- Direct Jitter
  1,                                      !- Direct Pretest
  6,                                      !- Ambient Bounces VMX
  2,                                      !- Ambient Bounces DMX
  4050,                                   !- Ambient Divisions VMX
  512,                                    !- Ambient Divisions DMX
  256,                                    !- Ambient Supersamples
  0.001,                                  !- Limit Weight VMX
  0.001,                                  !- Limit Weight DMX
  500,                                    !- Klems Sampling Density
  146;                                    !- Sky Discretization Resolution

OS:SimulationControl,
  {2c487a4c-bac9-4ac5-b669-1e49d9da7c2b}, !- Handle
  ,                                       !- Do Zone Sizing Calculation
  ,                                       !- Do System Sizing Calculation
  ,                                       !- Do Plant Sizing Calculation
  No,                                     !- Run Simulation for Sizing Periods
  ,                                       !- Run Simulation for Weather File Run Periods
  0.04,                                   !- Loads Convergence Tolerance Value
  ,                                       !- Temperature Convergence Tolerance Value {deltaC}
  ,                                       !- Solar Distribution
  ,                                       !- Maximum Number of Warmup Days
  2;                                      !- Minimum Number of Warmup Days

OS:Sizing:Parameters,
  {dde5af6f-7923-4600-a28a-7556673a0266}, !- Handle
  1.25,                                   !- Heating Sizing Factor
  1.15;                                   !- Cooling Sizing Factor

OS:ProgramControl,
  {05027a99-f2b3-4aeb-afc6-1425fbb4371d}; !- Handle

OS:Timestep,
  {4ebc9f1e-4707-402e-9844-67eb1ffbd522}, !- Handle
  2;                                      !- Number of Timesteps per Hour

OS:OutputControl:ReportingTolerances,
  {65797aa2-06a9-45fe-b69d-bc6e060399d3}; !- Handle

OS:ConvergenceLimits,
  {9fc11aba-8822-4f3d-970c-46391ba4040d}; !- Handle

OS:ShadowCalculation,
  {ca758bea-4416-4626-9bba-3d8795c79bd6}, !- Handle
  7,                                      !- Calculation Frequency
  15000;                                  !- Maximum Figures in Shadow Overlap Calculations

OS:SurfaceConvectionAlgorithm:Inside,
  {aaabfc36-718a-4ab0-b622-f186ebb45230}, !- Handle
  TARP;                                   !- Algorithm

OS:SurfaceConvectionAlgorithm:Outside,
  {9a0a9f6f-4bbd-4b12-a121-9492a1fcd7d6}, !- Handle
  DOE-2;                                  !- Algorithm

OS:HeatBalanceAlgorithm,
  {9d93e563-e1e0-46d7-9e39-d1c8aceb7212}, !- Handle
  ConductionTransferFunction,             !- Algorithm
  200;                                    !- Surface Temperature Upper Limit {F}

OS:ZoneAirHeatBalanceAlgorithm,
  {8520d93e-310f-4696-9bcd-36228bfdd743}, !- Handle
  AnalyticalSolution;                     !- Algorithm

OS:ZoneAirContaminantBalance,
  {eb5fc3ae-fb22-4160-8fcb-3e3b22b000d3}; !- Handle

OS:ZoneCapacitanceMultiplier:ResearchSpecial,
  {4020ce4f-5a7a-4849-8028-8305d7b751b1}, !- Handle
  ,                                       !- Temperature Capacity Multiplier
  ,                                       !- Humidity Capacity Multiplier
  ;                                       !- Carbon Dioxide Capacity Multiplier

OS:RunPeriod,
  {28df894d-6af9-4fb8-8f56-df1753344aa3}, !- Handle
  Run Period 1,                           !- Name
  1,                                      !- Begin Month
  1,                                      !- Begin Day of Month
  12,                                     !- End Month
  31,                                     !- End Day of Month
  ,                                       !- Use Weather File Holidays and Special Days
  ,                                       !- Use Weather File Daylight Saving Period
  ,                                       !- Apply Weekend Holiday Rule
  ,                                       !- Use Weather File Rain Indicators
  ,                                       !- Use Weather File Snow Indicators
  ;                                       !- Number of Times Runperiod to be Repeated

OS:Building,
  {bf305633-c5a1-4881-9edf-ca5e1a8e1274}, !- Handle
  Building 1,                             !- Name
  ,                                       !- Building Sector Type
  ,                                       !- North Axis {deg}
  ,                                       !- Nominal Floor to Floor Height {m}
  ,                                       !- Space Type Name
  ,                                       !- Default Construction Set Name
  {59f00696-197b-4302-874b-7124e6696bc6}, !- Default Schedule Set Name
  ,                                       !- Standards Number of Stories
  ,                                       !- Standards Number of Above Ground Stories
  GasStation;                             !- Standards Building Type

OS:LifeCycleCost:Parameters,
  {231cf8a0-f0e7-4251-a99f-11f0d464e661}, !- Handle
  FEMP,                                   !- Analysis Type
  ,                                       !- Discounting Convention
  ,                                       !- Inflation Approach
  ,                                       !- Real Discount Rate
  ,                                       !- Nominal Discount Rate
  ,                                       !- Inflation
  ,                                       !- Base Date Month
  ,                                       !- Base Date Year
  ,                                       !- Service Date Month
  ,                                       !- Service Date Year
  ,                                       !- Length of Study Period in Years
  ,                                       !- Tax Rate
  ,                                       !- Depreciation Method
  Yes;                                    !- Use NIST Fuel Escalation Rates

OS:Facility,
  {3ba8e45b-b833-44eb-a723-ea6c3946dc96}; !- Handle

OS:SpaceType,
  {a7aa362a-7ecf-4736-a308-071a16f9a49c}, !- Handle
  GasStation|Retail|DOE Ref 1980-2004|ASHRAE 169-2006-5A, !- Name
  {4ca11be4-afaa-4f4f-b655-af6afa168aea}, !- Default Construction Set Name
  {5056944d-89dc-4e52-bd2a-b8352dc6c2df}, !- Default Schedule Set Name
  {70a54988-827f-4211-9da9-b6b9b2b5b3f3}, !- Group Rendering Name
  {7a1cf6d8-4d4d-4ec1-93a8-819eae1ad4d4}, !- Design Specification Outdoor Air Object Name
  GasStation,                             !- Standards Building Type
  Retail;                                 !- Standards Space Type

OS:Rendering:Color,
  {70a54988-827f-4211-9da9-b6b9b2b5b3f3}, !- Handle
  Rendering Color 1,                      !- Name
  171,                                    !- Rendering Red Value
  222,                                    !- Rendering Green Value
  78;                                     !- Rendering Blue Value

OS:SpaceType,
  {44ae1de8-a3e9-456a-9326-592cb6feff1e}, !- Handle
  GasStation|Restroom|DOE Ref 1980-2004|ASHRAE 169-2006-5A, !- Name
  {4ca11be4-afaa-4f4f-b655-af6afa168aea}, !- Default Construction Set Name
  {99ee9f46-2246-48f8-86d7-a565f0aca040}, !- Default Schedule Set Name
  {db6f7033-dec8-4d32-b437-9d9c8bd8aec8}, !- Group Rendering Name
  {7238619c-2a4a-4a97-86b6-a531c249a57d}, !- Design Specification Outdoor Air Object Name
  GasStation,                             !- Standards Building Type
  Restroom;                               !- Standards Space Type

OS:Rendering:Color,
  {db6f7033-dec8-4d32-b437-9d9c8bd8aec8}, !- Handle
  Rendering Color 2,                      !- Name
  169,                                    !- Rendering Red Value
  169,                                    !- Rendering Green Value
  31;                                     !- Rendering Blue Value

OS:SpaceType,
  {8b2700fb-f7fd-4035-ac4c-9562508ac249}, !- Handle
  GasStation|ClosedOffice|DOE Ref 1980-2004|ASHRAE 169-2006-5A, !- Name
  {4ca11be4-afaa-4f4f-b655-af6afa168aea}, !- Default Construction Set Name
  {15c72921-98b0-4804-aea6-22c673141406}, !- Default Schedule Set Name
  {025a9c81-d39d-457c-91f2-4eb99652d6a1}, !- Group Rendering Name
  {a0225447-e4ac-473d-b6eb-4777d9e3ef0f}, !- Design Specification Outdoor Air Object Name
  GasStation,                             !- Standards Building Type
  ClosedOffice;                           !- Standards Space Type

OS:Rendering:Color,
  {025a9c81-d39d-457c-91f2-4eb99652d6a1}, !- Handle
  Rendering Color 3,                      !- Name
  120,                                    !- Rendering Red Value
  230,                                    !- Rendering Green Value
  199;                                    !- Rendering Blue Value

OS:Schedule:Ruleset,
  {1f45329a-96d6-45ad-ba86-e429f26815e8}, !- Handle
  0600|2000|GasStation|default|hoo,       !- Name
  {f9aa3f89-e729-4b4b-b0f7-ad32b0c94b4f}, !- Schedule Type Limits Name
  {2e33998d-e629-4472-a790-120cadcc1e91}, !- Default Day Schedule Name
  {3fd26608-e29a-4bcd-ba85-c761e4f6839f}, !- Summer Design Day Schedule Name
  {8225666b-ee6f-4f2e-8eba-6bd46b0cfea2}; !- Winter Design Day Schedule Name

OS:Schedule:Day,
  {2e33998d-e629-4472-a790-120cadcc1e91}, !- Handle
  0600|2000|GasStation|default|hoo Schedule Week Day, !- Name
  {f9aa3f89-e729-4b4b-b0f7-ad32b0c94b4f}, !- Schedule Type Limits Name
  ,                                       !- Interpolate to Timestep
  6,                                      !- Hour 1
  0,                                      !- Minute 1
  0,                                      !- Value Until Time 1
  20,                                     !- Hour 2
  0,                                      !- Minute 2
  1,                                      !- Value Until Time 2
  24,                                     !- Hour 3
  0,                                      !- Minute 3
  0;                                      !- Value Until Time 3

OS:Schedule:Day,
  {518c0dbb-bedf-4f99-a8a0-a4eb1a6cb4eb}, !- Handle
  Schedule Day 2,                         !- Name
  ,                                       !- Schedule Type Limits Name
  ,                                       !- Interpolate to Timestep
  24,                                     !- Hour 1
  0,                                      !- Minute 1
  0;                                      !- Value Until Time 1

OS:Schedule:Day,
  {8225666b-ee6f-4f2e-8eba-6bd46b0cfea2}, !- Handle
  0600|2000|GasStation|default|hoo Winter Design Day, !- Name
  {f9aa3f89-e729-4b4b-b0f7-ad32b0c94b4f}, !- Schedule Type Limits Name
  ,                                       !- Interpolate to Timestep
  24,                                     !- Hour 1
  0,                                      !- Minute 1
  0;                                      !- Value Until Time 1

OS:Schedule:Day,
  {ea9d261b-b35a-4800-b5a1-6a40720bc464}, !- Handle
  Schedule Day 3,                         !- Name
  ,                                       !- Schedule Type Limits Name
  ,                                       !- Interpolate to Timestep
  24,                                     !- Hour 1
  0,                                      !- Minute 1
  0;                                      !- Value Until Time 1

OS:Schedule:Day,
  {3fd26608-e29a-4bcd-ba85-c761e4f6839f}, !- Handle
  0600|2000|GasStation|default|hoo Summer Design Day, !- Name
  {f9aa3f89-e729-4b4b-b0f7-ad32b0c94b4f}, !- Schedule Type Limits Name
  ,                                       !- Interpolate to Timestep
  24,                                     !- Hour 1
  0,                                      !- Minute 1
  1;                                      !- Value Until Time 1

OS:DefaultScheduleSet,
  {59f00696-197b-4302-874b-7124e6696bc6}, !- Handle
  Building Hours of Operation,            !- Name
  {1f45329a-96d6-45ad-ba86-e429f26815e8}, !- Hours of Operation Schedule Name
  ,                                       !- Number of People Schedule Name
  ,                                       !- People Activity Level Schedule Name
  ,                                       !- Lighting Schedule Name
  ,                                       !- Electric Equipment Schedule Name
  ,                                       !- Gas Equipment Schedule Name
  ,                                       !- Hot Water Equipment Schedule Name
  ,                                       !- Infiltration Schedule Name
  ,                                       !- Steam Equipment Schedule Name
  ;                                       !- Other Equipment Schedule Name

OS:ScheduleTypeLimits,
  {f9aa3f89-e729-4b4b-b0f7-ad32b0c94b4f}, !- Handle
  OnOff,                                  !- Name
  0,                                      !- Lower Limit Value {BasedOnField A4}
  1,                                      !- Upper Limit Value {BasedOnField A4}
  Discrete,                               !- Numeric Type
  Availability;                           !- Unit Type

OS:Schedule:Ruleset,
  {b5848a60-f8e2-4033-9e34-16575ad6cee5}, !- Handle
  0600|2000|GasStation|default|activity,  !- Name
  {89a0a3e3-906e-4a98-83ff-76aae3ccfb93}, !- Schedule Type Limits Name
  {f9f8370e-dac4-480a-89ac-ece84f853744}, !- Default Day Schedule Name
  {9fdf5b08-0e22-4def-addc-b4ef92029aec}, !- Summer Design Day Schedule Name
  {20c47486-d418-4dae-b0dc-e6fe027b6cec}; !- Winter Design Day Schedule Name

OS:ScheduleTypeLimits,
  {89a0a3e3-906e-4a98-83ff-76aae3ccfb93}, !- Handle
  People Activity Type Limits,            !- Name
  0,                                      !- Lower Limit Value {BasedOnField A4}
  ,                                       !- Upper Limit Value {BasedOnField A4}
  Continuous,                             !- Numeric Type
  ActivityLevel;                          !- Unit Type

OS:Schedule:Day,
  {f9f8370e-dac4-480a-89ac-ece84f853744}, !- Handle
  0600|2000|GasStation|default|activity |default, !- Name
  {89a0a3e3-906e-4a98-83ff-76aae3ccfb93}, !- Schedule Type Limits Name
  ,                                       !- Interpolate to Timestep
  24,                                     !- Hour 1
  0,                                      !- Minute 1
  120;                                    !- Value Until Time 1

OS:Schedule:Day,
  {9fdf5b08-0e22-4def-addc-b4ef92029aec}, !- Handle
  0600|2000|GasStation|default|activity Summer Design Day, !- Name
  {89a0a3e3-906e-4a98-83ff-76aae3ccfb93}, !- Schedule Type Limits Name
  ,                                       !- Interpolate to Timestep
  24,                                     !- Hour 1
  0,                                      !- Minute 1
  120;                                    !- Value Until Time 1

OS:Schedule:Day,
  {20c47486-d418-4dae-b0dc-e6fe027b6cec}, !- Handle
  0600|2000|GasStation|default|activity Winter Design Day, !- Name
  {89a0a3e3-906e-4a98-83ff-76aae3ccfb93}, !- Schedule Type Limits Name
  ,                                       !- Interpolate to Timestep
  24,                                     !- Hour 1
  0,                                      !- Minute 1
  120;                                    !- Value Until Time 1

OS:Schedule:Ruleset,
  {2911c54c-1f5e-4477-8bd1-aaa5c8ec5941}, !- Handle
  0600|2000|GasStation|Retail|lighting,   !- Name
  {0a1e8a89-ec1e-49fa-8e32-51bf42dcef31}, !- Schedule Type Limits Name
  {ac1b2d5c-112b-4100-8d74-ee47dcc693cc}, !- Default Day Schedule Name
  {27c03baf-585b-4608-bd62-34fa2a1fb388}, !- Summer Design Day Schedule Name
  {e81d4bbe-b15e-4008-8099-4b86338dc81d}; !- Winter Design Day Schedule Name

OS:ScheduleTypeLimits,
  {0a1e8a89-ec1e-49fa-8e32-51bf42dcef31}, !- Handle
  Lights Schedule Type Limits,            !- Name
  0,                                      !- Lower Limit Value {BasedOnField A4}
  1,                                      !- Upper Limit Value {BasedOnField A4}
  Continuous,                             !- Numeric Type
  Dimensionless;                          !- Unit Type

OS:Schedule:Day,
  {ac1b2d5c-112b-4100-8d74-ee47dcc693cc}, !- Handle
  0600|2000|GasStation|Retail|lighting |default, !- Name
  {0a1e8a89-ec1e-49fa-8e32-51bf42dcef31}, !- Schedule Type Limits Name
  ,                                       !- Interpolate to Timestep
  6,                                      !- Hour 1
  0,                                      !- Minute 1
  0.05,                                   !- Value Until Time 1
  7,                                      !- Hour 2
  0,                                      !- Minute 2
  0.2,                                    !- Value Until Time 2
  8,                                      !- Hour 3
  0,                                      !- Minute 3
  0.5,                                    !- Value Until Time 3
  17,                                     !- Hour 4
  0,                                      !- Minute 4
  0.9,                                    !- Value Until Time 4
  19,                                     !- Hour 5
  0,                                      !- Minute 5
  0.6,                                    !- Value Until Time 5
  20,                                     !- Hour 6
  0,                                      !- Minute 6
  0.5,                                    !- Value Until Time 6
  21,                                     !- Hour 7
  0,                                      !- Minute 7
  0.2,                                    !- Value Until Time 7
  24,                                     !- Hour 8
  0,                                      !- Minute 8
  0.05;                                   !- Value Until Time 8

OS:Schedule:Day,
  {27c03baf-585b-4608-bd62-34fa2a1fb388}, !- Handle
  0600|2000|GasStation|Retail|lighting Summer Design Day, !- Name
  {0a1e8a89-ec1e-49fa-8e32-51bf42dcef31}, !- Schedule Type Limits Name
  ,                                       !- Interpolate to Timestep
  6,                                      !- Hour 1
  0,                                      !- Minute 1
  0.05,                                   !- Value Until Time 1
  7,                                      !- Hour 2
  0,                                      !- Minute 2
  0.2,                                    !- Value Until Time 2
  20,                                     !- Hour 3
  0,                                      !- Minute 3
  1,                                      !- Value Until Time 3
  21,                                     !- Hour 4
  0,                                      !- Minute 4
  0.2,                                    !- Value Until Time 4
  24,                                     !- Hour 5
  0,                                      !- Minute 5
  0.05;                                   !- Value Until Time 5

OS:Schedule:Day,
  {e81d4bbe-b15e-4008-8099-4b86338dc81d}, !- Handle
  0600|2000|GasStation|Retail|lighting Winter Design Day, !- Name
  {0a1e8a89-ec1e-49fa-8e32-51bf42dcef31}, !- Schedule Type Limits Name
  ,                                       !- Interpolate to Timestep
  24,                                     !- Hour 1
  0,                                      !- Minute 1
  0.05;                                   !- Value Until Time 1

OS:Schedule:Rule,
  {e8017403-71a3-4f5c-a24b-a0db6c0b8ba2}, !- Handle
  0600|2000|GasStation|Retail|lighting |1/1-12/31|Sat Rule, !- Name
  {2911c54c-1f5e-4477-8bd1-aaa5c8ec5941}, !- Schedule Ruleset Name
  0,                                      !- Rule Order
  {ec758abb-5988-4d13-899d-a8b93921c27b}, !- Day Schedule Name
  ,                                       !- Apply Sunday
  ,                                       !- Apply Monday
  ,                                       !- Apply Tuesday
  ,                                       !- Apply Wednesday
  ,                                       !- Apply Thursday
  ,                                       !- Apply Friday
  Yes,                                    !- Apply Saturday
  ,                                       !- Apply Holiday
  DateRange,                              !- Date Specification Type
  1,                                      !- Start Month
  1,                                      !- Start Day
  12,                                     !- End Month
  31;                                     !- End Day

OS:Schedule:Day,
  {ec758abb-5988-4d13-899d-a8b93921c27b}, !- Handle
  0600|2000|GasStation|Retail|lighting |1/1-12/31|Sat, !- Name
  {0a1e8a89-ec1e-49fa-8e32-51bf42dcef31}, !- Schedule Type Limits Name
  ,                                       !- Interpolate to Timestep
  6,                                      !- Hour 1
  0,                                      !- Minute 1
  0.05,                                   !- Value Until Time 1
  7,                                      !- Hour 2
  0,                                      !- Minute 2
  0.1,                                    !- Value Until Time 2
  8,                                      !- Hour 3
  0,                                      !- Minute 3
  0.3,                                    !- Value Until Time 3
  9,                                      !- Hour 4
  0,                                      !- Minute 4
  0.6,                                    !- Value Until Time 4
  17,                                     !- Hour 5
  0,                                      !- Minute 5
  0.9,                                    !- Value Until Time 5
  18,                                     !- Hour 6
  0,                                      !- Minute 6
  0.5,                                    !- Value Until Time 6
  20,                                     !- Hour 7
  0,                                      !- Minute 7
  0.3,                                    !- Value Until Time 7
  21,                                     !- Hour 8
  0,                                      !- Minute 8
  0.1,                                    !- Value Until Time 8
  24,                                     !- Hour 9
  0,                                      !- Minute 9
  0.05;                                   !- Value Until Time 9

OS:Schedule:Rule,
  {0d6f0bf5-db5b-4406-a7b7-42afb10b557f}, !- Handle
  0600|2000|GasStation|Retail|lighting |1/1-12/31|Sun Rule, !- Name
  {2911c54c-1f5e-4477-8bd1-aaa5c8ec5941}, !- Schedule Ruleset Name
  1,                                      !- Rule Order
  {f3ed4705-8953-4658-ad73-0e7ddf4c5937}, !- Day Schedule Name
  Yes,                                    !- Apply Sunday
  ,                                       !- Apply Monday
  ,                                       !- Apply Tuesday
  ,                                       !- Apply Wednesday
  ,                                       !- Apply Thursday
  ,                                       !- Apply Friday
  ,                                       !- Apply Saturday
  ,                                       !- Apply Holiday
  DateRange,                              !- Date Specification Type
  1,                                      !- Start Month
  1,                                      !- Start Day
  12,                                     !- End Month
  31;                                     !- End Day

OS:Schedule:Day,
  {f3ed4705-8953-4658-ad73-0e7ddf4c5937}, !- Handle
  0600|2000|GasStation|Retail|lighting |1/1-12/31|Sun, !- Name
  {0a1e8a89-ec1e-49fa-8e32-51bf42dcef31}, !- Schedule Type Limits Name
  ,                                       !- Interpolate to Timestep
  7,                                      !- Hour 1
  0,                                      !- Minute 1
  0.05,                                   !- Value Until Time 1
  9,                                      !- Hour 2
  0,                                      !- Minute 2
  0.1,                                    !- Value Until Time 2
  11,                                     !- Hour 3
  0,                                      !- Minute 3
  0.4,                                    !- Value Until Time 3
  16,                                     !- Hour 4
  0,                                      !- Minute 4
  0.6,                                    !- Value Until Time 4
  17,                                     !- Hour 5
  0,                                      !- Minute 5
  0.4,                                    !- Value Until Time 5
  18,                                     !- Hour 6
  0,                                      !- Minute 6
  0.2,                                    !- Value Until Time 6
  24,                                     !- Hour 7
  0,                                      !- Minute 7
  0.05;                                   !- Value Until Time 7

OS:Schedule:Ruleset,
  {585baf4a-6fa5-4a1c-88dc-9e9fd0a023f1}, !- Handle
  0600|2000|GasStation|default|htg_setpoint, !- Name
  {860b20cc-35b6-42b9-8987-b913ef33bd35}, !- Schedule Type Limits Name
  {229ef999-94ef-49dd-897d-d4cdc515ae86}, !- Default Day Schedule Name
  {4b0914e0-04d9-40da-a873-9d6b33b1a7cf}, !- Summer Design Day Schedule Name
  {208dbe99-079b-4298-b19a-865b0d77dc3d}; !- Winter Design Day Schedule Name

OS:ScheduleTypeLimits,
  {860b20cc-35b6-42b9-8987-b913ef33bd35}, !- Handle
  Thermostat Heating Setpoint Schedule Type Limits, !- Name
  0,                                      !- Lower Limit Value {BasedOnField A4}
  100,                                    !- Upper Limit Value {BasedOnField A4}
  Continuous,                             !- Numeric Type
  Temperature;                            !- Unit Type

OS:Schedule:Day,
  {229ef999-94ef-49dd-897d-d4cdc515ae86}, !- Handle
  0600|2000|GasStation|default|htg_setpoint |default, !- Name
  {860b20cc-35b6-42b9-8987-b913ef33bd35}, !- Schedule Type Limits Name
  ,                                       !- Interpolate to Timestep
  24,                                     !- Hour 1
  0,                                      !- Minute 1
  21.0000000000001;                       !- Value Until Time 1

OS:Schedule:Day,
  {4b0914e0-04d9-40da-a873-9d6b33b1a7cf}, !- Handle
  0600|2000|GasStation|default|htg_setpoint Summer Design Day, !- Name
  {860b20cc-35b6-42b9-8987-b913ef33bd35}, !- Schedule Type Limits Name
  ,                                       !- Interpolate to Timestep
  24,                                     !- Hour 1
  0,                                      !- Minute 1
  21.0000000000001;                       !- Value Until Time 1

OS:Schedule:Day,
  {208dbe99-079b-4298-b19a-865b0d77dc3d}, !- Handle
  0600|2000|GasStation|default|htg_setpoint Winter Design Day, !- Name
  {860b20cc-35b6-42b9-8987-b913ef33bd35}, !- Schedule Type Limits Name
  ,                                       !- Interpolate to Timestep
  24,                                     !- Hour 1
  0,                                      !- Minute 1
  21.0000000000001;                       !- Value Until Time 1

OS:Schedule:Rule,
  {7fdb23c6-b02e-46c2-bf80-8c186fe9bbd6}, !- Handle
  0600|2000|GasStation|default|htg_setpoint |1/1-12/31|Sun Rule, !- Name
  {585baf4a-6fa5-4a1c-88dc-9e9fd0a023f1}, !- Schedule Ruleset Name
  0,                                      !- Rule Order
  {1890d151-fd2d-4322-992d-695bdf9396bb}, !- Day Schedule Name
  Yes,                                    !- Apply Sunday
  ,                                       !- Apply Monday
  ,                                       !- Apply Tuesday
  ,                                       !- Apply Wednesday
  ,                                       !- Apply Thursday
  ,                                       !- Apply Friday
  ,                                       !- Apply Saturday
  ,                                       !- Apply Holiday
  DateRange,                              !- Date Specification Type
  1,                                      !- Start Month
  1,                                      !- Start Day
  12,                                     !- End Month
  31;                                     !- End Day

OS:Schedule:Day,
  {1890d151-fd2d-4322-992d-695bdf9396bb}, !- Handle
  0600|2000|GasStation|default|htg_setpoint |1/1-12/31|Sun, !- Name
  {860b20cc-35b6-42b9-8987-b913ef33bd35}, !- Schedule Type Limits Name
  ,                                       !- Interpolate to Timestep
  24,                                     !- Hour 1
  0,                                      !- Minute 1
  21.0000000000001;                       !- Value Until Time 1

OS:Schedule:Rule,
  {f7576f5d-cb5d-4c9a-a0fa-5b423e3480ca}, !- Handle
  0600|2000|GasStation|default|htg_setpoint |1/1-12/31|Sat Rule, !- Name
  {585baf4a-6fa5-4a1c-88dc-9e9fd0a023f1}, !- Schedule Ruleset Name
  1,                                      !- Rule Order
  {cc996925-1268-4b66-8855-4ec6b64220b5}, !- Day Schedule Name
  ,                                       !- Apply Sunday