
OS:Version,
  {75782d39-dd53-459b-a485-52b0fe337a14}, !- Handle
  1.6.0;                                  !- Version Identifier

OS:ClimateZones,
  {135edfab-17e7-40db-a436-27d385a8cd6d}, !- Handle
  ,                                       !- Active Institution
  ,                                       !- Active Year
  ASHRAE,                                 !- Climate Zone Institution Name 1
  ANSI/ASHRAE Standard 169,               !- Climate Zone Document Name 1
  2006,                                   !- Climate Zone Document Year 1
  ,                                       !- Climate Zone Value 1
  CEC,                                    !- Climate Zone Institution Name 2
  California Climate Zone Descriptions,   !- Climate Zone Document Name 2
  1995,                                   !- Climate Zone Document Year 2
  ;                                       !- Climate Zone Value 2

OS:YearDescription,
  {513d8dda-86cb-442a-b01c-1f7f0e0ac70e}; !- Handle

OS:RadianceParameters,
  {270a96f1-3c86-4b75-a667-cdf22790e2c8}, !- Handle
  1,                                      !- Accumulated Rays per Record
  0,                                      !- Direct Threshold
  1,                                      !- Direct Certainty
  1,                                      !- Direct Jitter
  1,                                      !- Direct Pretest
  6,                                      !- Ambient Bounces VMX
  2,                                      !- Ambient Bounces DMX
  4050,                                   !- Ambient Divisions VMX
  512,                                    !- Ambient Divisions DMX
  256,                                    !- Ambient Supersamples
  0.001,                                  !- Limit Weight VMX
  0.001,                                  !- Limit Weight DMX
  500,                                    !- Klems Sampling Density
  146;                                    !- Sky Discretization Resolution

OS:SimulationControl,
  {2c487a4c-bac9-4ac5-b669-1e49d9da7c2b}, !- Handle
  ,                                       !- Do Zone Sizing Calculation
  ,                                       !- Do System Sizing Calculation
  ,                                       !- Do Plant Sizing Calculation
  No,                                     !- Run Simulation for Sizing Periods
  ,                                       !- Run Simulation for Weather File Run Periods
  0.04,                                   !- Loads Convergence Tolerance Value
  ,                                       !- Temperature Convergence Tolerance Value {deltaC}
  ,                                       !- Solar Distribution
  ,                                       !- Maximum Number of Warmup Days
  2;                                      !- Minimum Number of Warmup Days

OS:Sizing:Parameters,
  {dde5af6f-7923-4600-a28a-7556673a0266}, !- Handle
  1.25,                                   !- Heating Sizing Factor
  1.15;                                   !- Cooling Sizing Factor

OS:ProgramControl,
  {05027a99-f2b3-4aeb-afc6-1425fbb4371d}; !- Handle

OS:Timestep,
  {4ebc9f1e-4707-402e-9844-67eb1ffbd522}, !- Handle
  2;                                      !- Number of Timesteps per Hour

OS:OutputControl:ReportingTolerances,
  {65797aa2-06a9-45fe-b69d-bc6e060399d3}; !- Handle

OS:ConvergenceLimits,
  {9fc11aba-8822-4f3d-970c-46391ba4040d}; !- Handle

OS:ShadowCalculation,
  {ca758bea-4416-4626-9bba-3d8795c79bd6}, !- Handle
  7,                                      !- Calculation Frequency
  15000;                                  !- Maximum Figures in Shadow Overlap Calculations

OS:SurfaceConvectionAlgorithm:Inside,
  {aaabfc36-718a-4ab0-b622-f186ebb45230}, !- Handle
  TARP;                                   !- Algorithm

OS:SurfaceConvectionAlgorithm:Outside,
  {9a0a9f6f-4bbd-4b12-a121-9492a1fcd7d6}, !- Handle
  DOE-2;                                  !- Algorithm

OS:HeatBalanceAlgorithm,
  {9d93e563-e1e0-46d7-9e39-d1c8aceb7212}, !- Handle
  ConductionTransferFunction,             !- Algorithm
  200;                                    !- Surface Temperature Upper Limit {F}

OS:ZoneAirHeatBalanceAlgorithm,
  {8520d93e-310f-4696-9bcd-36228bfdd743}, !- Handle
  AnalyticalSolution;                     !- Algorithm

OS:ZoneAirContaminantBalance,
  {eb5fc3ae-fb22-4160-8fcb-3e3b22b000d3}; !- Handle

OS:ZoneCapacitanceMultiplier:ResearchSpecial,
  {4020ce4f-5a7a-4849-8028-8305d7b751b1}, !- Handle
  ,                                       !- Temperature Capacity Multiplier
  ,                                       !- Humidity Capacity Multiplier
  ;                                       !- Carbon Dioxide Capacity Multiplier

OS:RunPeriod,
  {28df894d-6af9-4fb8-8f56-df1753344aa3}, !- Handle
  Run Period 1,                           !- Name
  1,                                      !- Begin Month
  1,                                      !- Begin Day of Month
  12,                                     !- End Month
  31,                                     !- End Day of Month
  ,                                       !- Use Weather File Holidays and Special Days
  ,                                       !- Use Weather File Daylight Saving Period
  ,                                       !- Apply Weekend Holiday Rule
  ,                                       !- Use Weather File Rain Indicators
  ,                                       !- Use Weather File Snow Indicators
  ;                                       !- Number of Times Runperiod to be Repeated

OS:Building,
  {bf305633-c5a1-4881-9edf-ca5e1a8e1274}, !- Handle
  Building 1,                             !- Name
  ,                                       !- Building Sector Type
  ,                                       !- North Axis {deg}
  ,                                       !- Nominal Floor to Floor Height {m}
  ,                                       !- Space Type Name
  ,                                       !- Default Construction Set Name
  {082168fd-7b4f-41ca-ab42-bafb872b6f7d}, !- Default Schedule Set Name
  ,                                       !- Standards Number of Stories
  ,                                       !- Standards Number of Above Ground Stories
  GasStation;                             !- Standards Building Type

OS:LifeCycleCost:Parameters,
  {231cf8a0-f0e7-4251-a99f-11f0d464e661}, !- Handle
  FEMP,                                   !- Analysis Type
  ,                                       !- Discounting Convention
  ,                                       !- Inflation Approach
  ,                                       !- Real Discount Rate
  ,                                       !- Nominal Discount Rate
  ,                                       !- Inflation
  ,                                       !- Base Date Month
  ,                                       !- Base Date Year
  ,                                       !- Service Date Month
  ,                                       !- Service Date Year
  ,                                       !- Length of Study Period in Years
  ,                                       !- Tax Rate
  ,                                       !- Depreciation Method
  Yes;                                    !- Use NIST Fuel Escalation Rates

OS:Facility,
  {3ba8e45b-b833-44eb-a723-ea6c3946dc96}; !- Handle

OS:SpaceType,
  {90e89f4e-a273-470c-b0c4-1b250dd791f0}, !- Handle
  GasStation|Retail|DOE Ref Pre-1980|ASHRAE 169-2006-5A, !- Name
  {3f78d034-d0fe-429e-a6c5-fefea40c75f6}, !- Default Construction Set Name
  {6b7f9cff-e35a-4281-9a6a-be8833c7d4fc}, !- Default Schedule Set Name
  {a6d0cd18-9bb9-44cd-8f61-792268379047}, !- Group Rendering Name
  {10459144-f9b4-484a-b4d7-5bfe97ccb04f}, !- Design Specification Outdoor Air Object Name
  GasStation,                             !- Standards Building Type
  Retail;                                 !- Standards Space Type

OS:Rendering:Color,
  {a6d0cd18-9bb9-44cd-8f61-792268379047}, !- Handle
  Rendering Color 1,                      !- Name
  171,                                    !- Rendering Red Value
  222,                                    !- Rendering Green Value
  78;                                     !- Rendering Blue Value

OS:SpaceType,
  {a6775ea3-888b-4bef-853c-3ecd6c38a34f}, !- Handle
  GasStation|Restroom|DOE Ref Pre-1980|ASHRAE 169-2006-5A, !- Name
  {3f78d034-d0fe-429e-a6c5-fefea40c75f6}, !- Default Construction Set Name
  {5687d61c-20ac-45e5-94af-0a0b63b576b6}, !- Default Schedule Set Name
  {85f1d9b1-6cfe-4b44-b3ac-f693e0138c0f}, !- Group Rendering Name
  {a6aaecf8-f604-447f-8fd3-89f1383a24e3}, !- Design Specification Outdoor Air Object Name
  GasStation,                             !- Standards Building Type
  Restroom;                               !- Standards Space Type

OS:Rendering:Color,
  {85f1d9b1-6cfe-4b44-b3ac-f693e0138c0f}, !- Handle
  Rendering Color 2,                      !- Name
  169,                                    !- Rendering Red Value
  169,                                    !- Rendering Green Value
  31;                                     !- Rendering Blue Value

OS:SpaceType,
  {f7ba8c31-a367-439d-beb1-6b98d108ada2}, !- Handle
  GasStation|ClosedOffice|DOE Ref Pre-1980|ASHRAE 169-2006-5A, !- Name
  {3f78d034-d0fe-429e-a6c5-fefea40c75f6}, !- Default Construction Set Name
  {0d9db566-3032-4391-b432-c0b29c2b3a9b}, !- Default Schedule Set Name
  {000d0ae7-5d0c-4082-8fab-bfb4604eb464}, !- Group Rendering Name
  {78dcfb3c-2466-458d-97d2-f67a2c916dd6}, !- Design Specification Outdoor Air Object Name
  GasStation,                             !- Standards Building Type
  ClosedOffice;                           !- Standards Space Type

OS:Rendering:Color,
  {000d0ae7-5d0c-4082-8fab-bfb4604eb464}, !- Handle
  Rendering Color 3,                      !- Name
  120,                                    !- Rendering Red Value
  230,                                    !- Rendering Green Value
  199;                                    !- Rendering Blue Value

OS:Schedule:Ruleset,
  {f80746a5-291c-4de4-bbbe-9269aec8dcf8}, !- Handle
  0600|2000|GasStation|default|hoo,       !- Name
  {33c46362-063a-49fa-8649-5f147dc0f48f}, !- Schedule Type Limits Name
  {65b9403d-d5e3-419a-8080-9b49d1754e96}, !- Default Day Schedule Name
  {38e544bd-f221-41d9-96c0-993f09c5ea50}, !- Summer Design Day Schedule Name
  {7235ed4f-8f53-4941-a9ab-eef3edaebe8b}; !- Winter Design Day Schedule Name

OS:Schedule:Day,
  {65b9403d-d5e3-419a-8080-9b49d1754e96}, !- Handle
  0600|2000|GasStation|default|hoo Schedule Week Day, !- Name
  {33c46362-063a-49fa-8649-5f147dc0f48f}, !- Schedule Type Limits Name
  ,                                       !- Interpolate to Timestep
  6,                                      !- Hour 1
  0,                                      !- Minute 1
  0,                                      !- Value Until Time 1
  20,                                     !- Hour 2
  0,                                      !- Minute 2
  1,                                      !- Value Until Time 2
  24,                                     !- Hour 3
  0,                                      !- Minute 3
  0;                                      !- Value Until Time 3

OS:Schedule:Day,
  {0615ba69-9677-48ee-a8d6-edeebf0a26dc}, !- Handle
  Schedule Day 2,                         !- Name
  ,                                       !- Schedule Type Limits Name
  ,                                       !- Interpolate to Timestep
  24,                                     !- Hour 1
  0,                                      !- Minute 1
  0;                                      !- Value Until Time 1

OS:Schedule:Day,
  {7235ed4f-8f53-4941-a9ab-eef3edaebe8b}, !- Handle
  0600|2000|GasStation|default|hoo Winter Design Day, !- Name
  {33c46362-063a-49fa-8649-5f147dc0f48f}, !- Schedule Type Limits Name
  ,                                       !- Interpolate to Timestep
  24,                                     !- Hour 1
  0,                                      !- Minute 1
  0;                                      !- Value Until Time 1

OS:Schedule:Day,
  {1fa0d5e8-352e-4fc7-926a-b7c77e9c9159}, !- Handle
  Schedule Day 3,                         !- Name
  ,                                       !- Schedule Type Limits Name
  ,                                       !- Interpolate to Timestep
  24,                                     !- Hour 1
  0,                                      !- Minute 1
  0;                                      !- Value Until Time 1

OS:Schedule:Day,
  {38e544bd-f221-41d9-96c0-993f09c5ea50}, !- Handle
  0600|2000|GasStation|default|hoo Summer Design Day, !- Name
  {33c46362-063a-49fa-8649-5f147dc0f48f}, !- Schedule Type Limits Name
  ,                                       !- Interpolate to Timestep
  24,                                     !- Hour 1
  0,                                      !- Minute 1
  1;                                      !- Value Until Time 1

OS:DefaultScheduleSet,
  {082168fd-7b4f-41ca-ab42-bafb872b6f7d}, !- Handle
  Building Hours of Operation,            !- Name
  {f80746a5-291c-4de4-bbbe-9269aec8dcf8}, !- Hours of Operation Schedule Name
  ,                                       !- Number of People Schedule Name
  ,                                       !- People Activity Level Schedule Name
  ,                                       !- Lighting Schedule Name
  ,                                       !- Electric Equipment Schedule Name
  ,                                       !- Gas Equipment Schedule Name
  ,                                       !- Hot Water Equipment Schedule Name
  ,                                       !- Infiltration Schedule Name
  ,                                       !- Steam Equipment Schedule Name
  ;                                       !- Other Equipment Schedule Name

OS:ScheduleTypeLimits,
  {33c46362-063a-49fa-8649-5f147dc0f48f}, !- Handle
  OnOff,                                  !- Name
  0,                                      !- Lower Limit Value {BasedOnField A4}
  1,                                      !- Upper Limit Value {BasedOnField A4}
  Discrete,                               !- Numeric Type
  Availability;                           !- Unit Type

OS:Schedule:Ruleset,
  {921d4332-307c-483c-86d5-80d760c5a307}, !- Handle
  0600|2000|GasStation|default|activity,  !- Name
  {f8c51dfe-19a5-4c71-b428-9a55f73ebbca}, !- Schedule Type Limits Name
  {2393beea-f668-48f4-b10c-c9bdefd6e0e8}, !- Default Day Schedule Name
  {db0f8dbe-ee31-4e33-85bb-d2561dded9a8}, !- Summer Design Day Schedule Name
  {063de0fb-cc25-4eb4-ba9b-6af44594f33e}; !- Winter Design Day Schedule Name

OS:ScheduleTypeLimits,
  {f8c51dfe-19a5-4c71-b428-9a55f73ebbca}, !- Handle
  People Activity Type Limits,            !- Name
  0,                                      !- Lower Limit Value {BasedOnField A4}
  ,                                       !- Upper Limit Value {BasedOnField A4}
  Continuous,                             !- Numeric Type
  ActivityLevel;                          !- Unit Type

OS:Schedule:Day,
  {2393beea-f668-48f4-b10c-c9bdefd6e0e8}, !- Handle
  0600|2000|GasStation|default|activity |default, !- Name
  {f8c51dfe-19a5-4c71-b428-9a55f73ebbca}, !- Schedule Type Limits Name
  ,                                       !- Interpolate to Timestep
  24,                                     !- Hour 1
  0,                                      !- Minute 1
  120;                                    !- Value Until Time 1

OS:Schedule:Day,
  {db0f8dbe-ee31-4e33-85bb-d2561dded9a8}, !- Handle
  0600|2000|GasStation|default|activity Summer Design Day, !- Name
  {f8c51dfe-19a5-4c71-b428-9a55f73ebbca}, !- Schedule Type Limits Name
  ,                                       !- Interpolate to Timestep
  24,                                     !- Hour 1
  0,                                      !- Minute 1
  120;                                    !- Value Until Time 1

OS:Schedule:Day,
  {063de0fb-cc25-4eb4-ba9b-6af44594f33e}, !- Handle
  0600|2000|GasStation|default|activity Winter Design Day, !- Name
  {f8c51dfe-19a5-4c71-b428-9a55f73ebbca}, !- Schedule Type Limits Name
  ,                                       !- Interpolate to Timestep
  24,                                     !- Hour 1
  0,                                      !- Minute 1
  120;                                    !- Value Until Time 1

OS:Schedule:Ruleset,
  {79480414-a844-4ebc-a8ee-8a2a970c2871}, !- Handle
  0600|2000|GasStation|Retail|lighting,   !- Name
  {bc0566c0-28e6-48d7-b006-79c06a2d99b0}, !- Schedule Type Limits Name
  {26aa1236-330e-4676-8926-36b07c07aca2}, !- Default Day Schedule Name
  {c1f79259-576c-4371-bbde-de25ad50a1de}, !- Summer Design Day Schedule Name
  {b79ecfb0-18ab-45f7-8928-fe9287c1581f}; !- Winter Design Day Schedule Name

OS:ScheduleTypeLimits,
  {bc0566c0-28e6-48d7-b006-79c06a2d99b0}, !- Handle
  Lights Schedule Type Limits,            !- Name
  0,                                      !- Lower Limit Value {BasedOnField A4}
  1,                                      !- Upper Limit Value {BasedOnField A4}
  Continuous,                             !- Numeric Type
  Dimensionless;                          !- Unit Type

OS:Schedule:Day,
  {26aa1236-330e-4676-8926-36b07c07aca2}, !- Handle
  0600|2000|GasStation|Retail|lighting |default, !- Name
  {bc0566c0-28e6-48d7-b006-79c06a2d99b0}, !- Schedule Type Limits Name
  ,                                       !- Interpolate to Timestep
  6,                                      !- Hour 1
  0,                                      !- Minute 1
  0.05,                                   !- Value Until Time 1
  7,                                      !- Hour 2
  0,                                      !- Minute 2
  0.2,                                    !- Value Until Time 2
  8,                                      !- Hour 3
  0,                                      !- Minute 3
  0.5,                                    !- Value Until Time 3
  17,                                     !- Hour 4
  0,                                      !- Minute 4
  0.9,                                    !- Value Until Time 4
  19,                                     !- Hour 5
  0,                                      !- Minute 5
  0.6,                                    !- Value Until Time 5
  20,                                     !- Hour 6
  0,                                      !- Minute 6
  0.5,                                    !- Value Until Time 6
  21,                                     !- Hour 7
  0,                                      !- Minute 7
  0.2,                                    !- Value Until Time 7
  24,                                     !- Hour 8
  0,                                      !- Minute 8
  0.05;                                   !- Value Until Time 8

OS:Schedule:Day,
  {c1f79259-576c-4371-bbde-de25ad50a1de}, !- Handle
  0600|2000|GasStation|Retail|lighting Summer Design Day, !- Name
  {bc0566c0-28e6-48d7-b006-79c06a2d99b0}, !- Schedule Type Limits Name
  ,                                       !- Interpolate to Timestep
  6,                                      !- Hour 1
  0,                                      !- Minute 1
  0.05,                                   !- Value Until Time 1
  7,                                      !- Hour 2
  0,                                      !- Minute 2
  0.2,                                    !- Value Until Time 2
  20,                                     !- Hour 3
  0,                                      !- Minute 3
  1,                                      !- Value Until Time 3
  21,                                     !- Hour 4
  0,                                      !- Minute 4
  0.2,                                    !- Value Until Time 4
  24,                                     !- Hour 5
  0,                                      !- Minute 5
  0.05;                                   !- Value Until Time 5

OS:Schedule:Day,
  {b79ecfb0-18ab-45f7-8928-fe9287c1581f}, !- Handle
  0600|2000|GasStation|Retail|lighting Winter Design Day, !- Name
  {bc0566c0-28e6-48d7-b006-79c06a2d99b0}, !- Schedule Type Limits Name
  ,                                       !- Interpolate to Timestep
  24,                                     !- Hour 1
  0,                                      !- Minute 1
  0.05;                                   !- Value Until Time 1

OS:Schedule:Rule,
  {dd083f12-a63b-4a3a-9fd2-1f98d6e16c2a}, !- Handle
  0600|2000|GasStation|Retail|lighting |1/1-12/31|Sat Rule, !- Name
  {79480414-a844-4ebc-a8ee-8a2a970c2871}, !- Schedule Ruleset Name
  0,                                      !- Rule Order
  {1d90b7ef-9b33-4779-a800-fe13cada1f6a}, !- Day Schedule Name
  ,                                       !- Apply Sunday
  ,                                       !- Apply Monday
  ,                                       !- Apply Tuesday
  ,                                       !- Apply Wednesday
  ,                                       !- Apply Thursday
  ,                                       !- Apply Friday
  Yes,                                    !- Apply Saturday
  ,                                       !- Apply Holiday
  DateRange,                              !- Date Specification Type
  1,                                      !- Start Month
  1,                                      !- Start Day
  12,                                     !- End Month
  31;                                     !- End Day

OS:Schedule:Day,
  {1d90b7ef-9b33-4779-a800-fe13cada1f6a}, !- Handle
  0600|2000|GasStation|Retail|lighting |1/1-12/31|Sat, !- Name
  {bc0566c0-28e6-48d7-b006-79c06a2d99b0}, !- Schedule Type Limits Name
  ,                                       !- Interpolate to Timestep
  6,                                      !- Hour 1
  0,                                      !- Minute 1
  0.05,                                   !- Value Until Time 1
  7,                                      !- Hour 2
  0,                                      !- Minute 2
  0.1,                                    !- Value Until Time 2
  8,                                      !- Hour 3
  0,                                      !- Minute 3
  0.3,                                    !- Value Until Time 3
  9,                                      !- Hour 4
  0,                                      !- Minute 4
  0.6,                                    !- Value Until Time 4
  17,                                     !- Hour 5
  0,                                      !- Minute 5
  0.9,                                    !- Value Until Time 5
  18,                                     !- Hour 6
  0,                                      !- Minute 6
  0.5,                                    !- Value Until Time 6
  20,                                     !- Hour 7
  0,                                      !- Minute 7
  0.3,                                    !- Value Until Time 7
  21,                                     !- Hour 8
  0,                                      !- Minute 8
  0.1,                                    !- Value Until Time 8
  24,                                     !- Hour 9
  0,                                      !- Minute 9
  0.05;                                   !- Value Until Time 9

OS:Schedule:Rule,
  {a9f5e271-f277-4e75-bda0-919e10e8ef8c}, !- Handle
  0600|2000|GasStation|Retail|lighting |1/1-12/31|Sun Rule, !- Name
  {79480414-a844-4ebc-a8ee-8a2a970c2871}, !- Schedule Ruleset Name
  1,                                      !- Rule Order
  {dc59fed4-a19b-4c14-9a6d-ed4dad5f9a0e}, !- Day Schedule Name
  Yes,                                    !- Apply Sunday
  ,                                       !- Apply Monday
  ,                                       !- Apply Tuesday
  ,                                       !- Apply Wednesday
  ,                                       !- Apply Thursday
  ,                                       !- Apply Friday
  ,                                       !- Apply Saturday
  ,                                       !- Apply Holiday
  DateRange,                              !- Date Specification Type
  1,                                      !- Start Month
  1,                                      !- Start Day
  12,                                     !- End Month
  31;                                     !- End Day

OS:Schedule:Day,
  {dc59fed4-a19b-4c14-9a6d-ed4dad5f9a0e}, !- Handle
  0600|2000|GasStation|Retail|lighting |1/1-12/31|Sun, !- Name
  {bc0566c0-28e6-48d7-b006-79c06a2d99b0}, !- Schedule Type Limits Name
  ,                                       !- Interpolate to Timestep
  7,                                      !- Hour 1
  0,                                      !- Minute 1
  0.05,                                   !- Value Until Time 1
  9,                                      !- Hour 2
  0,                                      !- Minute 2
  0.1,                                    !- Value Until Time 2
  11,                                     !- Hour 3
  0,                                      !- Minute 3
  0.4,                                    !- Value Until Time 3
  16,                                     !- Hour 4
  0,                                      !- Minute 4
  0.6,                                    !- Value Until Time 4
  17,                                     !- Hour 5
  0,                                      !- Minute 5
  0.4,                                    !- Value Until Time 5
  18,                                     !- Hour 6
  0,                                      !- Minute 6
  0.2,                                    !- Value Until Time 6
  24,                                     !- Hour 7
  0,                                      !- Minute 7
  0.05;                                   !- Value Until Time 7

OS:Schedule:Ruleset,
  {7175f1ca-820d-42c3-a380-909aa0c0af26}, !- Handle
  0600|2000|GasStation|default|htg_setpoint, !- Name
  {35f3092c-18c2-4005-ac1e-85e7ce85bb32}, !- Schedule Type Limits Name
  {6ef34629-1172-4d98-adfa-e1be57d78b49}, !- Default Day Schedule Name
  {e9b81bee-5d6a-4e26-84e0-3fac1b693801}, !- Summer Design Day Schedule Name
  {ebc69a28-d89b-4826-8161-ab079b7009b2}; !- Winter Design Day Schedule Name

OS:ScheduleTypeLimits,
  {35f3092c-18c2-4005-ac1e-85e7ce85bb32}, !- Handle
  Thermostat Heating Setpoint Schedule Type Limits, !- Name
  0,                                      !- Lower Limit Value {BasedOnField A4}
  100,                                    !- Upper Limit Value {BasedOnField A4}
  Continuous,                             !- Numeric Type
  Temperature;                            !- Unit Type

OS:Schedule:Day,
  {6ef34629-1172-4d98-adfa-e1be57d78b49}, !- Handle
  0600|2000|GasStation|default|htg_setpoint |default, !- Name
  {35f3092c-18c2-4005-ac1e-85e7ce85bb32}, !- Schedule Type Limits Name
  ,                                       !- Interpolate to Timestep
  24,                                     !- Hour 1
  0,                                      !- Minute 1
  21.0000000000001;                       !- Value Until Time 1

OS:Schedule:Day,
  {e9b81bee-5d6a-4e26-84e0-3fac1b693801}, !- Handle
  0600|2000|GasStation|default|htg_setpoint Summer Design Day, !- Name
  {35f3092c-18c2-4005-ac1e-85e7ce85bb32}, !- Schedule Type Limits Name
  ,                                       !- Interpolate to Timestep
  24,                                     !- Hour 1
  0,                                      !- Minute 1
  21.0000000000001;                       !- Value Until Time 1

OS:Schedule:Day,
  {ebc69a28-d89b-4826-8161-ab079b7009b2}, !- Handle
  0600|2000|GasStation|default|htg_setpoint Winter Design Day, !- Name
  {35f3092c-18c2-4005-ac1e-85e7ce85bb32}, !- Schedule Type Limits Name
  ,                                       !- Interpolate to Timestep
  24,                                     !- Hour 1
  0,                                      !- Minute 1
  21.0000000000001;                       !- Value Until Time 1

OS:Schedule:Rule,
  {fed86e6a-8f2c-4bfa-9f65-0aaccc990bef}, !- Handle
  0600|2000|GasStation|default|htg_setpoint |1/1-12/31|Sun Rule, !- Name
  {7175f1ca-820d-42c3-a380-909aa0c0af26}, !- Schedule Ruleset Name
  0,                                      !- Rule Order
  {ffd67dad-a079-42e3-86af-f73ed7919c61}, !- Day Schedule Name
  Yes,                                    !- Apply Sunday
  ,                                       !- Apply Monday
  ,                                       !- Apply Tuesday
  ,                                       !- Apply Wednesday
  ,                                       !- Apply Thursday
  ,                                       !- Apply Friday
  ,                                       !- Apply Saturday
  ,                                       !- Apply Holiday
  DateRange,                              !- Date Specification Type
  1,                                      !- Start Month
  1,                                      !- Start Day
  12,                                     !- End Month
  31;                                     !- End Day

OS:Schedule:Day,
  {ffd67dad-a079-42e3-86af-f73ed7919c61}, !- Handle
  0600|2000|GasStation|default|htg_setpoint |1/1-12/31|Sun, !- Name
  {35f3092c-18c2-4005-ac1e-85e7ce85bb32}, !- Schedule Type Limits Name
  ,                                       !- Interpolate to Timestep
  24,                                     !- Hour 1
  0,                                      !- Minute 1
  21.0000000000001;                       !- Value Until Time 1

OS:Schedule:Rule,
  {9ed0b7b5-5cb1-4751-8067-8866d1ea8cc1}, !- Handle
  0600|2000|GasStation|default|htg_setpoint |1/1-12/31|Sat Rule, !- Name
  {7175f1ca-820d-42c3-a380-909aa0c0af26}, !- Schedule Ruleset Name
  1,                                      !- Rule Order
  {76a1f7dc-a201-4720-933a-661203c6baae}, !- Day Schedule Name
  ,                                       !- Apply Sunday