
OS:Version,
  {127acb63-f60d-4aba-a34d-ee764a8e471a}, !- Handle
  1.6.0;                                  !- Version Identifier

OS:ClimateZones,
  {135edfab-17e7-40db-a436-27d385a8cd6d}, !- Handle
  ,                                       !- Active Institution
  ,                                       !- Active Year
  ASHRAE,                                 !- Climate Zone Institution Name 1
  ANSI/ASHRAE Standard 169,               !- Climate Zone Document Name 1
  2006,                                   !- Climate Zone Document Year 1
  ,                                       !- Climate Zone Value 1
  CEC,                                    !- Climate Zone Institution Name 2
  California Climate Zone Descriptions,   !- Climate Zone Document Name 2
  1995,                                   !- Climate Zone Document Year 2
  ;                                       !- Climate Zone Value 2

OS:YearDescription,
  {513d8dda-86cb-442a-b01c-1f7f0e0ac70e}; !- Handle

OS:RadianceParameters,
  {270a96f1-3c86-4b75-a667-cdf22790e2c8}, !- Handle
  1,                                      !- Accumulated Rays per Record
  0,                                      !- Direct Threshold
  1,                                      !- Direct Certainty
  1,                                      !- Direct Jitter
  1,                                      !- Direct Pretest
  6,                                      !- Ambient Bounces VMX
  2,                                      !- Ambient Bounces DMX
  4050,                                   !- Ambient Divisions VMX
  512,                                    !- Ambient Divisions DMX
  256,                                    !- Ambient Supersamples
  0.001,                                  !- Limit Weight VMX
  0.001,                                  !- Limit Weight DMX
  500,                                    !- Klems Sampling Density
  146;                                    !- Sky Discretization Resolution

OS:SimulationControl,
  {2c487a4c-bac9-4ac5-b669-1e49d9da7c2b}, !- Handle
  ,                                       !- Do Zone Sizing Calculation
  ,                                       !- Do System Sizing Calculation
  ,                                       !- Do Plant Sizing Calculation
  No,                                     !- Run Simulation for Sizing Periods
  ,                                       !- Run Simulation for Weather File Run Periods
  0.04,                                   !- Loads Convergence Tolerance Value
  ,                                       !- Temperature Convergence Tolerance Value {deltaC}
  ,                                       !- Solar Distribution
  ,                                       !- Maximum Number of Warmup Days
  2;                                      !- Minimum Number of Warmup Days

OS:Sizing:Parameters,
  {dde5af6f-7923-4600-a28a-7556673a0266}, !- Handle
  1.25,                                   !- Heating Sizing Factor
  1.15;                                   !- Cooling Sizing Factor

OS:ProgramControl,
  {05027a99-f2b3-4aeb-afc6-1425fbb4371d}; !- Handle

OS:Timestep,
  {4ebc9f1e-4707-402e-9844-67eb1ffbd522}, !- Handle
  2;                                      !- Number of Timesteps per Hour

OS:OutputControl:ReportingTolerances,
  {65797aa2-06a9-45fe-b69d-bc6e060399d3}; !- Handle

OS:ConvergenceLimits,
  {9fc11aba-8822-4f3d-970c-46391ba4040d}; !- Handle

OS:ShadowCalculation,
  {ca758bea-4416-4626-9bba-3d8795c79bd6}, !- Handle
  7,                                      !- Calculation Frequency
  15000;                                  !- Maximum Figures in Shadow Overlap Calculations

OS:SurfaceConvectionAlgorithm:Inside,
  {aaabfc36-718a-4ab0-b622-f186ebb45230}, !- Handle
  TARP;                                   !- Algorithm

OS:SurfaceConvectionAlgorithm:Outside,
  {9a0a9f6f-4bbd-4b12-a121-9492a1fcd7d6}, !- Handle
  DOE-2;                                  !- Algorithm

OS:HeatBalanceAlgorithm,
  {9d93e563-e1e0-46d7-9e39-d1c8aceb7212}, !- Handle
  ConductionTransferFunction,             !- Algorithm
  200;                                    !- Surface Temperature Upper Limit {F}

OS:ZoneAirHeatBalanceAlgorithm,
  {8520d93e-310f-4696-9bcd-36228bfdd743}, !- Handle
  AnalyticalSolution;                     !- Algorithm

OS:ZoneAirContaminantBalance,
  {eb5fc3ae-fb22-4160-8fcb-3e3b22b000d3}; !- Handle

OS:ZoneCapacitanceMultiplier:ResearchSpecial,
  {4020ce4f-5a7a-4849-8028-8305d7b751b1}, !- Handle
  ,                                       !- Temperature Capacity Multiplier
  ,                                       !- Humidity Capacity Multiplier
  ;                                       !- Carbon Dioxide Capacity Multiplier

OS:RunPeriod,
  {28df894d-6af9-4fb8-8f56-df1753344aa3}, !- Handle
  Run Period 1,                           !- Name
  1,                                      !- Begin Month
  1,                                      !- Begin Day of Month
  12,                                     !- End Month
  31,                                     !- End Day of Month
  ,                                       !- Use Weather File Holidays and Special Days
  ,                                       !- Use Weather File Daylight Saving Period
  ,                                       !- Apply Weekend Holiday Rule
  ,                                       !- Use Weather File Rain Indicators
  ,                                       !- Use Weather File Snow Indicators
  ;                                       !- Number of Times Runperiod to be Repeated

OS:Building,
  {bf305633-c5a1-4881-9edf-ca5e1a8e1274}, !- Handle
  Building 1,                             !- Name
  ,                                       !- Building Sector Type
  ,                                       !- North Axis {deg}
  ,                                       !- Nominal Floor to Floor Height {m}
  ,                                       !- Space Type Name
  ,                                       !- Default Construction Set Name
  {b4f7a249-68d7-4d57-b60e-a2ef9283712e}, !- Default Schedule Set Name
  ,                                       !- Standards Number of Stories
  ,                                       !- Standards Number of Above Ground Stories
  GasStation;                             !- Standards Building Type

OS:LifeCycleCost:Parameters,
  {231cf8a0-f0e7-4251-a99f-11f0d464e661}, !- Handle
  FEMP,                                   !- Analysis Type
  ,                                       !- Discounting Convention
  ,                                       !- Inflation Approach
  ,                                       !- Real Discount Rate
  ,                                       !- Nominal Discount Rate
  ,                                       !- Inflation
  ,                                       !- Base Date Month
  ,                                       !- Base Date Year
  ,                                       !- Service Date Month
  ,                                       !- Service Date Year
  ,                                       !- Length of Study Period in Years
  ,                                       !- Tax Rate
  ,                                       !- Depreciation Method
  Yes;                                    !- Use NIST Fuel Escalation Rates

OS:Facility,
  {3ba8e45b-b833-44eb-a723-ea6c3946dc96}; !- Handle

OS:SpaceType,
  {6c0d1dc8-1d8b-4073-8b0f-454f8e55bf79}, !- Handle
  GasStation|Retail|DOE Ref 2004|ASHRAE 169-2006-5A, !- Name
  {2af86a3e-7e76-4a3d-bf0b-5b02037d5946}, !- Default Construction Set Name
  {60cdc42c-2210-4e02-9932-bf555c839d6e}, !- Default Schedule Set Name
  {4d531b52-a421-4bb4-9dcc-5577a98ba6ad}, !- Group Rendering Name
  {4c23e701-e7b5-41cf-9007-8917b5b1bcf9}, !- Design Specification Outdoor Air Object Name
  GasStation,                             !- Standards Building Type
  Retail;                                 !- Standards Space Type

OS:Rendering:Color,
  {4d531b52-a421-4bb4-9dcc-5577a98ba6ad}, !- Handle
  Rendering Color 1,                      !- Name
  171,                                    !- Rendering Red Value
  222,                                    !- Rendering Green Value
  78;                                     !- Rendering Blue Value

OS:SpaceType,
  {56c208b3-6aa7-4ca4-a82c-ec536de82c8d}, !- Handle
  GasStation|Restroom|DOE Ref 2004|ASHRAE 169-2006-5A, !- Name
  {2af86a3e-7e76-4a3d-bf0b-5b02037d5946}, !- Default Construction Set Name
  {7ffa21d4-d02b-4acf-ac4f-7c2143afee50}, !- Default Schedule Set Name
  {16abb752-6063-449d-9f48-f1d9415a2983}, !- Group Rendering Name
  {5fbd64e2-879c-4b86-a131-f4193da0b09e}, !- Design Specification Outdoor Air Object Name
  GasStation,                             !- Standards Building Type
  Restroom;                               !- Standards Space Type

OS:Rendering:Color,
  {16abb752-6063-449d-9f48-f1d9415a2983}, !- Handle
  Rendering Color 2,                      !- Name
  169,                                    !- Rendering Red Value
  169,                                    !- Rendering Green Value
  31;                                     !- Rendering Blue Value

OS:SpaceType,
  {7174813b-bfd0-43a3-871e-0c7bf0438ad2}, !- Handle
  GasStation|ClosedOffice|DOE Ref 2004|ASHRAE 169-2006-5A, !- Name
  {2af86a3e-7e76-4a3d-bf0b-5b02037d5946}, !- Default Construction Set Name
  {22ac1cf4-0cf9-4d8b-ab8d-15a3ad52d8a7}, !- Default Schedule Set Name
  {0a289d3c-5d6a-46a2-8cc9-074cf2a5546e}, !- Group Rendering Name
  {61f11468-d93a-41fd-8653-b753e8cf7110}, !- Design Specification Outdoor Air Object Name
  GasStation,                             !- Standards Building Type
  ClosedOffice;                           !- Standards Space Type

OS:Rendering:Color,
  {0a289d3c-5d6a-46a2-8cc9-074cf2a5546e}, !- Handle
  Rendering Color 3,                      !- Name
  120,                                    !- Rendering Red Value
  230,                                    !- Rendering Green Value
  199;                                    !- Rendering Blue Value

OS:Schedule:Ruleset,
  {88ae4e7f-79fa-4e23-be43-44f2089f2c8c}, !- Handle
  0600|2000|GasStation|default|hoo,       !- Name
  {a03c46ef-a446-4dba-acac-5e060df7a17a}, !- Schedule Type Limits Name
  {9856f309-6f0c-4fb5-8858-066d1517291e}, !- Default Day Schedule Name
  {28b362f3-e38f-4b7b-8fb6-91a5f2634ed1}, !- Summer Design Day Schedule Name
  {455ea98b-7a6e-4402-b035-3b8a6b0c2a6a}; !- Winter Design Day Schedule Name

OS:Schedule:Day,
  {9856f309-6f0c-4fb5-8858-066d1517291e}, !- Handle
  0600|2000|GasStation|default|hoo Schedule Week Day, !- Name
  {a03c46ef-a446-4dba-acac-5e060df7a17a}, !- Schedule Type Limits Name
  ,                                       !- Interpolate to Timestep
  6,                                      !- Hour 1
  0,                                      !- Minute 1
  0,                                      !- Value Until Time 1
  20,                                     !- Hour 2
  0,                                      !- Minute 2
  1,                                      !- Value Until Time 2
  24,                                     !- Hour 3
  0,                                      !- Minute 3
  0;                                      !- Value Until Time 3

OS:Schedule:Day,
  {7d1dfff4-d5ec-4f70-9b19-accb62a7713e}, !- Handle
  Schedule Day 2,                         !- Name
  ,                                       !- Schedule Type Limits Name
  ,                                       !- Interpolate to Timestep
  24,                                     !- Hour 1
  0,                                      !- Minute 1
  0;                                      !- Value Until Time 1

OS:Schedule:Day,
  {455ea98b-7a6e-4402-b035-3b8a6b0c2a6a}, !- Handle
  0600|2000|GasStation|default|hoo Winter Design Day, !- Name
  {a03c46ef-a446-4dba-acac-5e060df7a17a}, !- Schedule Type Limits Name
  ,                                       !- Interpolate to Timestep
  24,                                     !- Hour 1
  0,                                      !- Minute 1
  0;                                      !- Value Until Time 1

OS:Schedule:Day,
  {126e37e1-e4b0-4aad-885a-155c366315d6}, !- Handle
  Schedule Day 3,                         !- Name
  ,                                       !- Schedule Type Limits Name
  ,                                       !- Interpolate to Timestep
  24,                                     !- Hour 1
  0,                                      !- Minute 1
  0;                                      !- Value Until Time 1

OS:Schedule:Day,
  {28b362f3-e38f-4b7b-8fb6-91a5f2634ed1}, !- Handle
  0600|2000|GasStation|default|hoo Summer Design Day, !- Name
  {a03c46ef-a446-4dba-acac-5e060df7a17a}, !- Schedule Type Limits Name
  ,                                       !- Interpolate to Timestep
  24,                                     !- Hour 1
  0,                                      !- Minute 1
  1;                                      !- Value Until Time 1

OS:DefaultScheduleSet,
  {b4f7a249-68d7-4d57-b60e-a2ef9283712e}, !- Handle
  Building Hours of Operation,            !- Name
  {88ae4e7f-79fa-4e23-be43-44f2089f2c8c}, !- Hours of Operation Schedule Name
  ,                                       !- Number of People Schedule Name
  ,                                       !- People Activity Level Schedule Name
  ,                                       !- Lighting Schedule Name
  ,                                       !- Electric Equipment Schedule Name
  ,                                       !- Gas Equipment Schedule Name
  ,                                       !- Hot Water Equipment Schedule Name
  ,                                       !- Infiltration Schedule Name
  ,                                       !- Steam Equipment Schedule Name
  ;                                       !- Other Equipment Schedule Name

OS:ScheduleTypeLimits,
  {a03c46ef-a446-4dba-acac-5e060df7a17a}, !- Handle
  OnOff,                                  !- Name
  0,                                      !- Lower Limit Value {BasedOnField A4}
  1,                                      !- Upper Limit Value {BasedOnField A4}
  Discrete,                               !- Numeric Type
  Availability;                           !- Unit Type

OS:Schedule:Ruleset,
  {852cc13c-5fc8-4e58-8ab8-9b31d22bcecc}, !- Handle
  0600|2000|GasStation|default|activity,  !- Name
  {8238a649-c6fe-42e9-87af-4638280b5af6}, !- Schedule Type Limits Name
  {17757421-75ce-407e-94e9-988ed61bfda3}, !- Default Day Schedule Name
  {5520e0ea-28ef-43d4-9101-b65c28ea5839}, !- Summer Design Day Schedule Name
  {8f6d9042-50b0-43b6-ab9e-bbbf131fed45}; !- Winter Design Day Schedule Name

OS:ScheduleTypeLimits,
  {8238a649-c6fe-42e9-87af-4638280b5af6}, !- Handle
  People Activity Type Limits,            !- Name
  0,                                      !- Lower Limit Value {BasedOnField A4}
  ,                                       !- Upper Limit Value {BasedOnField A4}
  Continuous,                             !- Numeric Type
  ActivityLevel;                          !- Unit Type

OS:Schedule:Day,
  {17757421-75ce-407e-94e9-988ed61bfda3}, !- Handle
  0600|2000|GasStation|default|activity |default, !- Name
  {8238a649-c6fe-42e9-87af-4638280b5af6}, !- Schedule Type Limits Name
  ,                                       !- Interpolate to Timestep
  24,                                     !- Hour 1
  0,                                      !- Minute 1
  120;                                    !- Value Until Time 1

OS:Schedule:Day,
  {5520e0ea-28ef-43d4-9101-b65c28ea5839}, !- Handle
  0600|2000|GasStation|default|activity Summer Design Day, !- Name
  {8238a649-c6fe-42e9-87af-4638280b5af6}, !- Schedule Type Limits Name
  ,                                       !- Interpolate to Timestep
  24,                                     !- Hour 1
  0,                                      !- Minute 1
  120;                                    !- Value Until Time 1

OS:Schedule:Day,
  {8f6d9042-50b0-43b6-ab9e-bbbf131fed45}, !- Handle
  0600|2000|GasStation|default|activity Winter Design Day, !- Name
  {8238a649-c6fe-42e9-87af-4638280b5af6}, !- Schedule Type Limits Name
  ,                                       !- Interpolate to Timestep
  24,                                     !- Hour 1
  0,                                      !- Minute 1
  120;                                    !- Value Until Time 1

OS:Schedule:Ruleset,
  {1a46a183-9f31-4d83-a08f-b83e6c5a2c32}, !- Handle
  0600|2000|GasStation|Retail|lighting,   !- Name
  {797a1dbb-c05c-43ce-9036-e1ee3169d10b}, !- Schedule Type Limits Name
  {74877357-6c3a-4264-aeaa-69aaa42c69d3}, !- Default Day Schedule Name
  {8c32d4c4-d7ef-44f5-a69a-73a234262583}, !- Summer Design Day Schedule Name
  {13759db2-d317-4523-a2ee-522fb7b24ba2}; !- Winter Design Day Schedule Name

OS:ScheduleTypeLimits,
  {797a1dbb-c05c-43ce-9036-e1ee3169d10b}, !- Handle
  Lights Schedule Type Limits,            !- Name
  0,                                      !- Lower Limit Value {BasedOnField A4}
  1,                                      !- Upper Limit Value {BasedOnField A4}
  Continuous,                             !- Numeric Type
  Dimensionless;                          !- Unit Type

OS:Schedule:Day,
  {74877357-6c3a-4264-aeaa-69aaa42c69d3}, !- Handle
  0600|2000|GasStation|Retail|lighting |default, !- Name
  {797a1dbb-c05c-43ce-9036-e1ee3169d10b}, !- Schedule Type Limits Name
  ,                                       !- Interpolate to Timestep
  6,                                      !- Hour 1
  0,                                      !- Minute 1
  0.05,                                   !- Value Until Time 1
  7,                                      !- Hour 2
  0,                                      !- Minute 2
  0.2,                                    !- Value Until Time 2
  8,                                      !- Hour 3
  0,                                      !- Minute 3
  0.5,                                    !- Value Until Time 3
  17,                                     !- Hour 4
  0,                                      !- Minute 4
  0.9,                                    !- Value Until Time 4
  19,                                     !- Hour 5
  0,                                      !- Minute 5
  0.6,                                    !- Value Until Time 5
  20,                                     !- Hour 6
  0,                                      !- Minute 6
  0.5,                                    !- Value Until Time 6
  21,                                     !- Hour 7
  0,                                      !- Minute 7
  0.2,                                    !- Value Until Time 7
  24,                                     !- Hour 8
  0,                                      !- Minute 8
  0.05;                                   !- Value Until Time 8

OS:Schedule:Day,
  {8c32d4c4-d7ef-44f5-a69a-73a234262583}, !- Handle
  0600|2000|GasStation|Retail|lighting Summer Design Day, !- Name
  {797a1dbb-c05c-43ce-9036-e1ee3169d10b}, !- Schedule Type Limits Name
  ,                                       !- Interpolate to Timestep
  6,                                      !- Hour 1
  0,                                      !- Minute 1
  0.05,                                   !- Value Until Time 1
  7,                                      !- Hour 2
  0,                                      !- Minute 2
  0.2,                                    !- Value Until Time 2
  20,                                     !- Hour 3
  0,                                      !- Minute 3
  1,                                      !- Value Until Time 3
  21,                                     !- Hour 4
  0,                                      !- Minute 4
  0.2,                                    !- Value Until Time 4
  24,                                     !- Hour 5
  0,                                      !- Minute 5
  0.05;                                   !- Value Until Time 5

OS:Schedule:Day,
  {13759db2-d317-4523-a2ee-522fb7b24ba2}, !- Handle
  0600|2000|GasStation|Retail|lighting Winter Design Day, !- Name
  {797a1dbb-c05c-43ce-9036-e1ee3169d10b}, !- Schedule Type Limits Name
  ,                                       !- Interpolate to Timestep
  24,                                     !- Hour 1
  0,                                      !- Minute 1
  0.05;                                   !- Value Until Time 1

OS:Schedule:Rule,
  {dff158c6-0a59-4b39-a157-527bf5252254}, !- Handle
  0600|2000|GasStation|Retail|lighting |1/1-12/31|Sat Rule, !- Name
  {1a46a183-9f31-4d83-a08f-b83e6c5a2c32}, !- Schedule Ruleset Name
  0,                                      !- Rule Order
  {fb67624f-39fc-490c-816d-0e1b2d38c629}, !- Day Schedule Name
  ,                                       !- Apply Sunday
  ,                                       !- Apply Monday
  ,                                       !- Apply Tuesday
  ,                                       !- Apply Wednesday
  ,                                       !- Apply Thursday
  ,                                       !- Apply Friday
  Yes,                                    !- Apply Saturday
  ,                                       !- Apply Holiday
  DateRange,                              !- Date Specification Type
  1,                                      !- Start Month
  1,                                      !- Start Day
  12,                                     !- End Month
  31;                                     !- End Day

OS:Schedule:Day,
  {fb67624f-39fc-490c-816d-0e1b2d38c629}, !- Handle
  0600|2000|GasStation|Retail|lighting |1/1-12/31|Sat, !- Name
  {797a1dbb-c05c-43ce-9036-e1ee3169d10b}, !- Schedule Type Limits Name
  ,                                       !- Interpolate to Timestep
  6,                                      !- Hour 1
  0,                                      !- Minute 1
  0.05,                                   !- Value Until Time 1
  7,                                      !- Hour 2
  0,                                      !- Minute 2
  0.1,                                    !- Value Until Time 2
  8,                                      !- Hour 3
  0,                                      !- Minute 3
  0.3,                                    !- Value Until Time 3
  9,                                      !- Hour 4
  0,                                      !- Minute 4
  0.6,                                    !- Value Until Time 4
  17,                                     !- Hour 5
  0,                                      !- Minute 5
  0.9,                                    !- Value Until Time 5
  18,                                     !- Hour 6
  0,                                      !- Minute 6
  0.5,                                    !- Value Until Time 6
  20,                                     !- Hour 7
  0,                                      !- Minute 7
  0.3,                                    !- Value Until Time 7
  21,                                     !- Hour 8
  0,                                      !- Minute 8
  0.1,                                    !- Value Until Time 8
  24,                                     !- Hour 9
  0,                                      !- Minute 9
  0.05;                                   !- Value Until Time 9

OS:Schedule:Rule,
  {227287d6-c2e2-4797-8ff0-3a5ef6b2de1b}, !- Handle
  0600|2000|GasStation|Retail|lighting |1/1-12/31|Sun Rule, !- Name
  {1a46a183-9f31-4d83-a08f-b83e6c5a2c32}, !- Schedule Ruleset Name
  1,                                      !- Rule Order
  {31301b11-ebdc-4dfe-a5eb-97a7fa427942}, !- Day Schedule Name
  Yes,                                    !- Apply Sunday
  ,                                       !- Apply Monday
  ,                                       !- Apply Tuesday
  ,                                       !- Apply Wednesday
  ,                                       !- Apply Thursday
  ,                                       !- Apply Friday
  ,                                       !- Apply Saturday
  ,                                       !- Apply Holiday
  DateRange,                              !- Date Specification Type
  1,                                      !- Start Month
  1,                                      !- Start Day
  12,                                     !- End Month
  31;                                     !- End Day

OS:Schedule:Day,
  {31301b11-ebdc-4dfe-a5eb-97a7fa427942}, !- Handle
  0600|2000|GasStation|Retail|lighting |1/1-12/31|Sun, !- Name
  {797a1dbb-c05c-43ce-9036-e1ee3169d10b}, !- Schedule Type Limits Name
  ,                                       !- Interpolate to Timestep
  7,                                      !- Hour 1
  0,                                      !- Minute 1
  0.05,                                   !- Value Until Time 1
  9,                                      !- Hour 2
  0,                                      !- Minute 2
  0.1,                                    !- Value Until Time 2
  11,                                     !- Hour 3
  0,                                      !- Minute 3
  0.4,                                    !- Value Until Time 3
  16,                                     !- Hour 4
  0,                                      !- Minute 4
  0.6,                                    !- Value Until Time 4
  17,                                     !- Hour 5
  0,                                      !- Minute 5
  0.4,                                    !- Value Until Time 5
  18,                                     !- Hour 6
  0,                                      !- Minute 6
  0.2,                                    !- Value Until Time 6
  24,                                     !- Hour 7
  0,                                      !- Minute 7
  0.05;                                   !- Value Until Time 7

OS:Schedule:Ruleset,
  {d893bc3b-512f-47a6-8a83-be87a4e3eb0b}, !- Handle
  0600|2000|GasStation|default|htg_setpoint, !- Name
  {7aa4bd23-3cab-49d6-8bbd-a184f2a042b5}, !- Schedule Type Limits Name
  {2113f9ef-25d6-427f-b179-7b225fe47bef}, !- Default Day Schedule Name
  {3934c306-243f-43c1-94e5-6fece5c04b3f}, !- Summer Design Day Schedule Name
  {2a055b90-793a-4474-8cb5-bc4046c7986b}; !- Winter Design Day Schedule Name

OS:ScheduleTypeLimits,
  {7aa4bd23-3cab-49d6-8bbd-a184f2a042b5}, !- Handle
  Thermostat Heating Setpoint Schedule Type Limits, !- Name
  0,                                      !- Lower Limit Value {BasedOnField A4}
  100,                                    !- Upper Limit Value {BasedOnField A4}
  Continuous,                             !- Numeric Type
  Temperature;                            !- Unit Type

OS:Schedule:Day,
  {2113f9ef-25d6-427f-b179-7b225fe47bef}, !- Handle
  0600|2000|GasStation|default|htg_setpoint |default, !- Name
  {7aa4bd23-3cab-49d6-8bbd-a184f2a042b5}, !- Schedule Type Limits Name
  ,                                       !- Interpolate to Timestep
  24,                                     !- Hour 1
  0,                                      !- Minute 1
  21.0000000000001;                       !- Value Until Time 1

OS:Schedule:Day,
  {3934c306-243f-43c1-94e5-6fece5c04b3f}, !- Handle
  0600|2000|GasStation|default|htg_setpoint Summer Design Day, !- Name
  {7aa4bd23-3cab-49d6-8bbd-a184f2a042b5}, !- Schedule Type Limits Name
  ,                                       !- Interpolate to Timestep
  24,                                     !- Hour 1
  0,                                      !- Minute 1
  21.0000000000001;                       !- Value Until Time 1

OS:Schedule:Day,
  {2a055b90-793a-4474-8cb5-bc4046c7986b}, !- Handle
  0600|2000|GasStation|default|htg_setpoint Winter Design Day, !- Name
  {7aa4bd23-3cab-49d6-8bbd-a184f2a042b5}, !- Schedule Type Limits Name
  ,                                       !- Interpolate to Timestep
  24,                                     !- Hour 1
  0,                                      !- Minute 1
  21.0000000000001;                       !- Value Until Time 1

OS:Schedule:Rule,
  {a11c586f-42b1-47bd-8456-71070f2e0fa2}, !- Handle
  0600|2000|GasStation|default|htg_setpoint |1/1-12/31|Sun Rule, !- Name
  {d893bc3b-512f-47a6-8a83-be87a4e3eb0b}, !- Schedule Ruleset Name
  0,                                      !- Rule Order
  {9d635b86-066b-4aa9-af0b-d4bec6e5116c}, !- Day Schedule Name
  Yes,                                    !- Apply Sunday
  ,                                       !- Apply Monday
  ,                                       !- Apply Tuesday
  ,                                       !- Apply Wednesday
  ,                                       !- Apply Thursday
  ,                                       !- Apply Friday
  ,                                       !- Apply Saturday
  ,                                       !- Apply Holiday
  DateRange,                              !- Date Specification Type
  1,                                      !- Start Month
  1,                                      !- Start Day
  12,                                     !- End Month
  31;                                     !- End Day

OS:Schedule:Day,
  {9d635b86-066b-4aa9-af0b-d4bec6e5116c}, !- Handle
  0600|2000|GasStation|default|htg_setpoint |1/1-12/31|Sun, !- Name
  {7aa4bd23-3cab-49d6-8bbd-a184f2a042b5}, !- Schedule Type Limits Name
  ,                                       !- Interpolate to Timestep
  24,                                     !- Hour 1
  0,                                      !- Minute 1
  21.0000000000001;                       !- Value Until Time 1

OS:Schedule:Rule,
  {4ad8113f-30c4-4fd6-91c7-fa2b3169407f}, !- Handle
  0600|2000|GasStation|default|htg_setpoint |1/1-12/31|Sat Rule, !- Name
  {d893bc3b-512f-47a6-8a83-be87a4e3eb0b}, !- Schedule Ruleset Name
  1,                                      !- Rule Order
  {4248f687-94fd-4b97-8654-2948198d2948}, !- Day Schedule Name
  ,                                       !- Apply Sunday