
OS:Version,
  {f62493b2-47c1-4bba-a09c-49649a1a4fcf}, !- Handle
  1.5.5;                                  !- Version Identifier

OS:ClimateZones,
  {135edfab-17e7-40db-a436-27d385a8cd6d}, !- Handle
  ,                                       !- Active Institution
  ,                                       !- Active Year
  ASHRAE,                                 !- Climate Zone Institution Name 1
  ANSI/ASHRAE Standard 169,               !- Climate Zone Document Name 1
  2006,                                   !- Climate Zone Document Year 1
  ,                                       !- Climate Zone Value 1
  CEC,                                    !- Climate Zone Institution Name 2
  California Climate Zone Descriptions,   !- Climate Zone Document Name 2
  1995,                                   !- Climate Zone Document Year 2
  ;                                       !- Climate Zone Value 2

OS:YearDescription,
  {513d8dda-86cb-442a-b01c-1f7f0e0ac70e}; !- Handle

OS:RadianceParameters,
  {270a96f1-3c86-4b75-a667-cdf22790e2c8}, !- Handle
  1,                                      !- Accumulated Rays per Record
  0,                                      !- Direct Threshold
  1,                                      !- Direct Certainty
  1,                                      !- Direct Jitter
  1,                                      !- Direct Pretest
  6,                                      !- Ambient Bounces VMX
  2,                                      !- Ambient Bounces DMX
  4050,                                   !- Ambient Divisions VMX
  512,                                    !- Ambient Divisions DMX
  256,                                    !- Ambient Supersamples
  0.001,                                  !- Limit Weight VMX
  0.001,                                  !- Limit Weight DMX
  500,                                    !- Klems Sampling Density
  146;                                    !- Sky Discretization Resolution

OS:SimulationControl,
  {2c487a4c-bac9-4ac5-b669-1e49d9da7c2b}, !- Handle
  ,                                       !- Do Zone Sizing Calculation
  ,                                       !- Do System Sizing Calculation
  ,                                       !- Do Plant Sizing Calculation
  No,                                     !- Run Simulation for Sizing Periods
  ,                                       !- Run Simulation for Weather File Run Periods
  0.04,                                   !- Loads Convergence Tolerance Value
  ,                                       !- Temperature Convergence Tolerance Value {deltaC}
  ,                                       !- Solar Distribution
  ,                                       !- Maximum Number of Warmup Days
  2;                                      !- Minimum Number of Warmup Days

OS:Sizing:Parameters,
  {dde5af6f-7923-4600-a28a-7556673a0266}, !- Handle
  1.25,                                   !- Heating Sizing Factor
  1.15;                                   !- Cooling Sizing Factor

OS:ProgramControl,
  {05027a99-f2b3-4aeb-afc6-1425fbb4371d}; !- Handle

OS:Timestep,
  {4ebc9f1e-4707-402e-9844-67eb1ffbd522}, !- Handle
  2;                                      !- Number of Timesteps per Hour

OS:OutputControl:ReportingTolerances,
  {65797aa2-06a9-45fe-b69d-bc6e060399d3}; !- Handle

OS:ConvergenceLimits,
  {9fc11aba-8822-4f3d-970c-46391ba4040d}; !- Handle

OS:ShadowCalculation,
  {ca758bea-4416-4626-9bba-3d8795c79bd6}, !- Handle
  7,                                      !- Calculation Frequency
  15000;                                  !- Maximum Figures in Shadow Overlap Calculations

OS:SurfaceConvectionAlgorithm:Inside,
  {aaabfc36-718a-4ab0-b622-f186ebb45230}, !- Handle
  TARP;                                   !- Algorithm

OS:SurfaceConvectionAlgorithm:Outside,
  {9a0a9f6f-4bbd-4b12-a121-9492a1fcd7d6}, !- Handle
  DOE-2;                                  !- Algorithm

OS:HeatBalanceAlgorithm,
  {9d93e563-e1e0-46d7-9e39-d1c8aceb7212}, !- Handle
  ConductionTransferFunction,             !- Algorithm
  200;                                    !- Surface Temperature Upper Limit {F}

OS:ZoneAirHeatBalanceAlgorithm,
  {8520d93e-310f-4696-9bcd-36228bfdd743}, !- Handle
  AnalyticalSolution;                     !- Algorithm

OS:ZoneAirContaminantBalance,
  {eb5fc3ae-fb22-4160-8fcb-3e3b22b000d3}; !- Handle

OS:ZoneCapacitanceMultiplier:ResearchSpecial,
  {4020ce4f-5a7a-4849-8028-8305d7b751b1}, !- Handle
  ,                                       !- Temperature Capacity Multiplier
  ,                                       !- Humidity Capacity Multiplier
  ;                                       !- Carbon Dioxide Capacity Multiplier

OS:RunPeriod,
  {28df894d-6af9-4fb8-8f56-df1753344aa3}, !- Handle
  Run Period 1,                           !- Name
  1,                                      !- Begin Month
  1,                                      !- Begin Day of Month
  12,                                     !- End Month
  31,                                     !- End Day of Month
  ,                                       !- Use Weather File Holidays and Special Days
  ,                                       !- Use Weather File Daylight Saving Period
  ,                                       !- Apply Weekend Holiday Rule
  ,                                       !- Use Weather File Rain Indicators
  ,                                       !- Use Weather File Snow Indicators
  ;                                       !- Number of Times Runperiod to be Repeated

OS:Building,
  {bf305633-c5a1-4881-9edf-ca5e1a8e1274}, !- Handle
  Building 1,                             !- Name
  ,                                       !- Building Sector Type
  ,                                       !- North Axis {deg}
  ,                                       !- Nominal Floor to Floor Height {m}
  ,                                       !- Space Type Name
  ,                                       !- Default Construction Set Name
  {e9e0cc91-0b2e-4f3c-bf2c-06fbe0dda246}, !- Default Schedule Set Name
  ,                                       !- Standards Number of Stories
  ,                                       !- Standards Number of Above Ground Stories
  Hospital;                               !- Standards Building Type

OS:LifeCycleCost:Parameters,
  {231cf8a0-f0e7-4251-a99f-11f0d464e661}, !- Handle
  FEMP,                                   !- Analysis Type
  ,                                       !- Discounting Convention
  ,                                       !- Inflation Approach
  ,                                       !- Real Discount Rate
  ,                                       !- Nominal Discount Rate
  ,                                       !- Inflation
  ,                                       !- Base Date Month
  ,                                       !- Base Date Year
  ,                                       !- Service Date Month
  ,                                       !- Service Date Year
  ,                                       !- Length of Study Period in Years
  ,                                       !- Tax Rate
  ,                                       !- Depreciation Method
  Yes;                                    !- Use NIST Fuel Escalation Rates

OS:Facility,
  {3ba8e45b-b833-44eb-a723-ea6c3946dc96}; !- Handle

OS:SpaceType,
  {507077b1-c445-48fc-a821-d28028cd403e}, !- Handle
  Hospital|BlendPat|DOE Ref 2004|ASHRAE 169-2006-5A, !- Name
  {b16af103-92b4-4b0f-a94a-bf32f2fe8fbd}, !- Default Construction Set Name
  ,                                       !- Default Schedule Set Name
  {adfc9fcc-db48-4896-a20b-c96dbf1dd17c}, !- Group Rendering Name
  {4cb63be1-1d7f-49af-b795-41be8028b207}, !- Design Specification Outdoor Air Object Name
  Hospital,                               !- Standards Building Type
  BlendPat;                               !- Standards Space Type

OS:Rendering:Color,
  {adfc9fcc-db48-4896-a20b-c96dbf1dd17c}, !- Handle
  Rendering Color 1,                      !- Name
  31,                                     !- Rendering Red Value
  162,                                    !- Rendering Green Value
  169;                                    !- Rendering Blue Value

OS:SpaceType,
  {5d9861ab-ab37-419d-a11b-f1af8fa28305}, !- Handle
  Hospital|BlendCirc|DOE Ref 2004|ASHRAE 169-2006-5A, !- Name
  {b16af103-92b4-4b0f-a94a-bf32f2fe8fbd}, !- Default Construction Set Name
  ,                                       !- Default Schedule Set Name
  {b2af5a5a-662c-4221-83a4-82402b7ce2a9}, !- Group Rendering Name
  {438a975d-09ec-42bf-805e-c6b33d778578}, !- Design Specification Outdoor Air Object Name
  Hospital,                               !- Standards Building Type
  BlendCirc;                              !- Standards Space Type

OS:Rendering:Color,
  {b2af5a5a-662c-4221-83a4-82402b7ce2a9}, !- Handle
  Rendering Color 2,                      !- Name
  169,                                    !- Rendering Red Value
  31,                                     !- Rendering Green Value
  31;                                     !- Rendering Blue Value

OS:SpaceType,
  {899ba852-ff2e-4906-999c-ec2587d90b7d}, !- Handle
  Hospital|Kitchen|DOE Ref 2004|ASHRAE 169-2006-5A, !- Name
  {b16af103-92b4-4b0f-a94a-bf32f2fe8fbd}, !- Default Construction Set Name
  {d9f2503e-5f81-49d5-a9e2-af59537bbc6e}, !- Default Schedule Set Name
  {236e44e4-cee8-43ef-9865-4d3704686cb5}, !- Group Rendering Name
  {c274ad53-206a-47bc-975b-2f798d6c69bb}, !- Design Specification Outdoor Air Object Name
  Hospital,                               !- Standards Building Type
  Kitchen;                                !- Standards Space Type

OS:Rendering:Color,
  {236e44e4-cee8-43ef-9865-4d3704686cb5}, !- Handle
  Rendering Color 3,                      !- Name
  78,                                     !- Rendering Red Value
  222,                                    !- Rendering Green Value
  133;                                    !- Rendering Blue Value

OS:SpaceType,
  {99cdbaa8-8ffe-423f-bba5-9dd3d6402b17}, !- Handle
  Hospital|Dining|DOE Ref 2004|ASHRAE 169-2006-5A, !- Name
  {b16af103-92b4-4b0f-a94a-bf32f2fe8fbd}, !- Default Construction Set Name
  {9dc47d9a-7e91-4284-b328-c5a5a076ccfa}, !- Default Schedule Set Name
  {3e209ed2-f252-4ea4-855b-db49b1adff2e}, !- Group Rendering Name
  {dec22bb6-0838-4cf9-8b8e-7a919a02d45c}, !- Design Specification Outdoor Air Object Name
  Hospital,                               !- Standards Building Type
  Dining;                                 !- Standards Space Type

OS:Rendering:Color,
  {3e209ed2-f252-4ea4-855b-db49b1adff2e}, !- Handle
  Rendering Color 4,                      !- Name
  31,                                     !- Rendering Red Value
  169,                                    !- Rendering Green Value
  34;                                     !- Rendering Blue Value

OS:SpaceType,
  {45a948aa-7928-4c4e-99c4-41018ba35863}, !- Handle
  Hospital|Lab|DOE Ref 2004|ASHRAE 169-2006-5A, !- Name
  {b16af103-92b4-4b0f-a94a-bf32f2fe8fbd}, !- Default Construction Set Name
  {2fe7723d-2d37-499c-afcc-08368c51b6c0}, !- Default Schedule Set Name
  {4f794bae-5d46-4be9-afda-0aa9bbbf37cc}, !- Group Rendering Name
  {74157860-c535-40b6-b27b-5c02bdc46c62}, !- Design Specification Outdoor Air Object Name
  Hospital,                               !- Standards Building Type
  Lab;                                    !- Standards Space Type

OS:Rendering:Color,
  {4f794bae-5d46-4be9-afda-0aa9bbbf37cc}, !- Handle
  Rendering Color 5,                      !- Name
  204,                                    !- Rendering Red Value
  120,                                    !- Rendering Green Value
  230;                                    !- Rendering Blue Value

OS:SpaceType,
  {51ae127f-6c04-47b4-b8ae-31876f2ce1e9}, !- Handle
  Hospital|Radiology|DOE Ref 2004|ASHRAE 169-2006-5A, !- Name
  {b16af103-92b4-4b0f-a94a-bf32f2fe8fbd}, !- Default Construction Set Name
  {ff7ec9ae-5267-4100-be7c-e9484e98d7d0}, !- Default Schedule Set Name
  {076d0cb1-bee2-4d90-96ee-f36a572b7427}, !- Group Rendering Name
  {a290f048-654e-4cc0-822c-db822ad7a199}, !- Design Specification Outdoor Air Object Name
  Hospital,                               !- Standards Building Type
  Radiology;                              !- Standards Space Type

OS:Rendering:Color,
  {076d0cb1-bee2-4d90-96ee-f36a572b7427}, !- Handle
  Rendering Color 6,                      !- Name
  136,                                    !- Rendering Red Value
  78,                                     !- Rendering Green Value
  222;                                    !- Rendering Blue Value

OS:Schedule:Ruleset,
  {41c2f0d1-aa64-4126-ad63-1283080ab9aa}, !- Handle
  0400|2200|Hospital|default|hoo,         !- Name
  {d0d57c98-49e3-4842-bf8e-fc72e3782ac2}, !- Schedule Type Limits Name
  {0a8668c9-826c-4555-907c-862af7bb7f78}, !- Default Day Schedule Name
  {73b19202-3b89-41dd-87b1-e155d520ece1}, !- Summer Design Day Schedule Name
  {fe871355-a70a-40ae-92e0-5090afe8a973}; !- Winter Design Day Schedule Name

OS:Schedule:Day,
  {0a8668c9-826c-4555-907c-862af7bb7f78}, !- Handle
  0400|2200|Hospital|default|hoo Schedule Week Day, !- Name
  {d0d57c98-49e3-4842-bf8e-fc72e3782ac2}, !- Schedule Type Limits Name
  ,                                       !- Interpolate to Timestep
  4,                                      !- Hour 1
  0,                                      !- Minute 1
  0,                                      !- Value Until Time 1
  22,                                     !- Hour 2
  0,                                      !- Minute 2
  1,                                      !- Value Until Time 2
  24,                                     !- Hour 3
  0,                                      !- Minute 3
  0;                                      !- Value Until Time 3

OS:Schedule:Day,
  {cbbbb174-2f76-40dd-8673-8a63d67f5292}, !- Handle
  Schedule Day 2,                         !- Name
  ,                                       !- Schedule Type Limits Name
  ,                                       !- Interpolate to Timestep
  24,                                     !- Hour 1
  0,                                      !- Minute 1
  0;                                      !- Value Until Time 1

OS:Schedule:Day,
  {fe871355-a70a-40ae-92e0-5090afe8a973}, !- Handle
  0400|2200|Hospital|default|hoo Winter Design Day, !- Name
  {d0d57c98-49e3-4842-bf8e-fc72e3782ac2}, !- Schedule Type Limits Name
  ,                                       !- Interpolate to Timestep
  24,                                     !- Hour 1
  0,                                      !- Minute 1
  0;                                      !- Value Until Time 1

OS:Schedule:Day,
  {29fdd45e-124a-4f29-8ef9-4eed2016f19e}, !- Handle
  Schedule Day 3,                         !- Name
  ,                                       !- Schedule Type Limits Name
  ,                                       !- Interpolate to Timestep
  24,                                     !- Hour 1
  0,                                      !- Minute 1
  0;                                      !- Value Until Time 1

OS:Schedule:Day,
  {73b19202-3b89-41dd-87b1-e155d520ece1}, !- Handle
  0400|2200|Hospital|default|hoo Summer Design Day, !- Name
  {d0d57c98-49e3-4842-bf8e-fc72e3782ac2}, !- Schedule Type Limits Name
  ,                                       !- Interpolate to Timestep
  24,                                     !- Hour 1
  0,                                      !- Minute 1
  1;                                      !- Value Until Time 1

OS:DefaultScheduleSet,
  {e9e0cc91-0b2e-4f3c-bf2c-06fbe0dda246}, !- Handle
  Building Hours of Operation,            !- Name
  {41c2f0d1-aa64-4126-ad63-1283080ab9aa}, !- Hours of Operation Schedule Name
  ,                                       !- Number of People Schedule Name
  ,                                       !- People Activity Level Schedule Name
  ,                                       !- Lighting Schedule Name
  ,                                       !- Electric Equipment Schedule Name
  ,                                       !- Gas Equipment Schedule Name
  ,                                       !- Hot Water Equipment Schedule Name
  ,                                       !- Infiltration Schedule Name
  ,                                       !- Steam Equipment Schedule Name
  ;                                       !- Other Equipment Schedule Name

OS:ScheduleTypeLimits,
  {d0d57c98-49e3-4842-bf8e-fc72e3782ac2}, !- Handle
  OnOff,                                  !- Name
  0,                                      !- Lower Limit Value {BasedOnField A4}
  1,                                      !- Upper Limit Value {BasedOnField A4}
  Discrete,                               !- Numeric Type
  Availability;                           !- Unit Type

OS:Schedule:Ruleset,
  {29d7bfbb-8f99-454d-8bfc-8619fb20c81f}, !- Handle
  0400|2200|Hospital|default|ext_lighting, !- Name
  {3bd38bd9-0936-437e-bc64-8ccdc7558481}, !- Schedule Type Limits Name
  {0d5496d6-37b8-44ef-8586-058c14eb5604}, !- Default Day Schedule Name
  {a1ba27e8-3bbc-4390-a82e-06de1436627e}, !- Summer Design Day Schedule Name
  {cb38bb3a-f34d-4c9b-94b9-947fdc1efd64}; !- Winter Design Day Schedule Name

OS:ScheduleTypeLimits,
  {3bd38bd9-0936-437e-bc64-8ccdc7558481}, !- Handle
  Lights Schedule Type Limits,            !- Name
  0,                                      !- Lower Limit Value {BasedOnField A4}
  1,                                      !- Upper Limit Value {BasedOnField A4}
  Continuous,                             !- Numeric Type
  Dimensionless;                          !- Unit Type

OS:Schedule:Day,
  {0d5496d6-37b8-44ef-8586-058c14eb5604}, !- Handle
  0400|2200|Hospital|default|ext_lighting |default, !- Name
  {3bd38bd9-0936-437e-bc64-8ccdc7558481}, !- Schedule Type Limits Name
  ,                                       !- Interpolate to Timestep
  24,                                     !- Hour 1
  0,                                      !- Minute 1
  1;                                      !- Value Until Time 1

OS:Schedule:Day,
  {a1ba27e8-3bbc-4390-a82e-06de1436627e}, !- Handle
  0400|2200|Hospital|default|ext_lighting Summer Design Day, !- Name
  {3bd38bd9-0936-437e-bc64-8ccdc7558481}, !- Schedule Type Limits Name
  ,                                       !- Interpolate to Timestep
  24,                                     !- Hour 1
  0,                                      !- Minute 1
  1;                                      !- Value Until Time 1

OS:Schedule:Day,
  {cb38bb3a-f34d-4c9b-94b9-947fdc1efd64}, !- Handle
  0400|2200|Hospital|default|ext_lighting Winter Design Day, !- Name
  {3bd38bd9-0936-437e-bc64-8ccdc7558481}, !- Schedule Type Limits Name
  ,                                       !- Interpolate to Timestep
  24,                                     !- Hour 1
  0,                                      !- Minute 1
  1;                                      !- Value Until Time 1

OS:Schedule:Ruleset,
  {ec54f88e-da4a-4dc5-aaa4-2a699ef07a0f}, !- Handle
  0400|2200|Hospital|Hospital Critical HtgSetp|htg_setpoint, !- Name
  {e4681df7-ff46-4d1c-9c8e-ee4a3f8d8f05}, !- Schedule Type Limits Name
  {59de8afa-8e06-4595-b2d1-0d93bb219c4d}, !- Default Day Schedule Name
  {3528ffcc-15b8-41d2-b245-aa7011261f3c}, !- Summer Design Day Schedule Name
  {1195333c-de42-46d7-b025-8d5514a83ebb}; !- Winter Design Day Schedule Name

OS:ScheduleTypeLimits,
  {e4681df7-ff46-4d1c-9c8e-ee4a3f8d8f05}, !- Handle
  Thermostat Heating Setpoint Schedule Type Limits, !- Name
  0,                                      !- Lower Limit Value {BasedOnField A4}
  100,                                    !- Upper Limit Value {BasedOnField A4}
  Continuous,                             !- Numeric Type
  Temperature;                            !- Unit Type

OS:Schedule:Day,
  {59de8afa-8e06-4595-b2d1-0d93bb219c4d}, !- Handle
  0400|2200|Hospital|Hospital Critical HtgSetp|htg_setpoint |default, !- Name
  {e4681df7-ff46-4d1c-9c8e-ee4a3f8d8f05}, !- Schedule Type Limits Name
  ,                                       !- Interpolate to Timestep
  24,                                     !- Hour 1
  0,                                      !- Minute 1
  21.1;                                   !- Value Until Time 1

OS:Schedule:Day,
  {3528ffcc-15b8-41d2-b245-aa7011261f3c}, !- Handle
  0400|2200|Hospital|Hospital Critical HtgSetp|htg_setpoint Summer Design Day, !- Name
  {e4681df7-ff46-4d1c-9c8e-ee4a3f8d8f05}, !- Schedule Type Limits Name
  ,                                       !- Interpolate to Timestep
  24,                                     !- Hour 1
  0,                                      !- Minute 1
  21.1;                                   !- Value Until Time 1

OS:Schedule:Day,
  {1195333c-de42-46d7-b025-8d5514a83ebb}, !- Handle
  0400|2200|Hospital|Hospital Critical HtgSetp|htg_setpoint Winter Design Day, !- Name
  {e4681df7-ff46-4d1c-9c8e-ee4a3f8d8f05}, !- Schedule Type Limits Name
  ,                                       !- Interpolate to Timestep
  24,                                     !- Hour 1
  0,                                      !- Minute 1
  21.1;                                   !- Value Until Time 1

OS:Schedule:Ruleset,
  {21552580-47d8-47b5-8bb5-801337bc1628}, !- Handle
  0400|2200|Hospital|ER_Exam|clg_setpoint, !- Name
  {36dc1213-4c79-4fc3-89c0-9fed26791622}, !- Schedule Type Limits Name
  {2a81213d-370e-486b-b7f6-e765cd13fa81}, !- Default Day Schedule Name
  {6e6282f7-37c6-49f3-81f8-1b903f282156}, !- Summer Design Day Schedule Name
  {dd1eeed5-cd50-4b56-8312-b1bf0e83d722}; !- Winter Design Day Schedule Name

OS:ScheduleTypeLimits,
  {36dc1213-4c79-4fc3-89c0-9fed26791622}, !- Handle
  Thermostat Cooling Setpoint Schedule Type Limits, !- Name
  0,                                      !- Lower Limit Value {BasedOnField A4}
  100,                                    !- Upper Limit Value {BasedOnField A4}
  Continuous,                             !- Numeric Type
  Temperature;                            !- Unit Type

OS:Schedule:Day,
  {2a81213d-370e-486b-b7f6-e765cd13fa81}, !- Handle
  0400|2200|Hospital|ER_Exam|clg_setpoint |default, !- Name
  {36dc1213-4c79-4fc3-89c0-9fed26791622}, !- Schedule Type Limits Name
  ,                                       !- Interpolate to Timestep
  24,                                     !- Hour 1
  0,                                      !- Minute 1
  22.2;                                   !- Value Until Time 1

OS:Schedule:Day,
  {6e6282f7-37c6-49f3-81f8-1b903f282156}, !- Handle
  0400|2200|Hospital|ER_Exam|clg_setpoint Summer Design Day, !- Name
  {36dc1213-4c79-4fc3-89c0-9fed26791622}, !- Schedule Type Limits Name
  ,                                       !- Interpolate to Timestep
  24,                                     !- Hour 1
  0,                                      !- Minute 1
  22.2;                                   !- Value Until Time 1

OS:Schedule:Day,
  {dd1eeed5-cd50-4b56-8312-b1bf0e83d722}, !- Handle
  0400|2200|Hospital|ER_Exam|clg_setpoint Winter Design Day, !- Name
  {36dc1213-4c79-4fc3-89c0-9fed26791622}, !- Schedule Type Limits Name
  ,                                       !- Interpolate to Timestep
  24,                                     !- Hour 1
  0,                                      !- Minute 1
  22.2;                                   !- Value Until Time 1

OS:Schedule:Ruleset,
  {c0620281-33e6-4e58-ac7b-e507a785489c}, !- Handle
  0400|2200|Hospital|ICU_PatRm|clg_setpoint, !- Name
  {36dc1213-4c79-4fc3-89c0-9fed26791622}, !- Schedule Type Limits Name
  {c60fe704-eb51-4110-acec-004f5643b6d3}, !- Default Day Schedule Name
  {fb62876a-eabf-4b22-af67-b8d9020af377}, !- Summer Design Day Schedule Name
  {e27aaef3-f197-4403-a8f1-f1cafb34a21e}; !- Winter Design Day Schedule Name

OS:Schedule:Day,
  {c60fe704-eb51-4110-acec-004f5643b6d3}, !- Handle
  0400|2200|Hospital|ICU_PatRm|clg_setpoint |default, !- Name
  {36dc1213-4c79-4fc3-89c0-9fed26791622}, !- Schedule Type Limits Name
  ,                                       !- Interpolate to Timestep
  24,                                     !- Hour 1
  0,                                      !- Minute 1
  22.2;                                   !- Value Until Time 1

OS:Schedule:Day,
  {fb62876a-eabf-4b22-af67-b8d9020af377}, !- Handle
  0400|2200|Hospital|ICU_PatRm|clg_setpoint Summer Design Day, !- Name
  {36dc1213-4c79-4fc3-89c0-9fed26791622}, !- Schedule Type Limits Name
  ,                                       !- Interpolate to Timestep
  24,                                     !- Hour 1
  0,                                      !- Minute 1
  22.2;                                   !- Value Until Time 1

OS:Schedule:Day,
  {e27aaef3-f197-4403-a8f1-f1cafb34a21e}, !- Handle
  0400|2200|Hospital|ICU_PatRm|clg_setpoint Winter Design Day, !- Name
  {36dc1213-4c79-4fc3-89c0-9fed26791622}, !- Schedule Type Limits Name
  ,                                       !- Interpolate to Timestep
  24,                                     !- Hour 1
  0,                                      !- Minute 1
  22.2;                                   !- Value Until Time 1

OS:Schedule:Ruleset,
  {74e80537-2ca6-4c25-826a-00e181c63e6f}, !- Handle
  0400|2200|Hospital|Hospital Critical Equip|elec_equip, !- Name
  {33635b07-1e64-4087-8d02-513ddb620b63}, !- Schedule Type Limits Name
  {45892af6-2bdb-4850-83a9-4cf69571c57a}, !- Default Day Schedule Name
  {a669d977-82f7-4ad7-8b90-1e393efbf15a}, !- Summer Design Day Schedule Name
  {58c9b8bf-e5da-4a38-90d4-dc64be274e8a}; !- Winter Design Day Schedule Name

OS:ScheduleTypeLimits,
  {33635b07-1e64-4087-8d02-513ddb620b63}, !- Handle
  Equipment Schedule Type Limits,         !- Name
  0,                                      !- Lower Limit Value {BasedOnField A4}
  1,                                      !- Upper Limit Value {BasedOnField A4}
  Continuous,                             !- Numeric Type
  Dimensionless;                          !- Unit Type

OS:Schedule:Day,
  {45892af6-2bdb-4850-83a9-4cf69571c57a}, !- Handle
  0400|2200|Hospital|Hospital Critical Equip|elec_equip |default, !- Name
  {33635b07-1e64-4087-8d02-513ddb620b63}, !- Schedule Type Limits Name
  ,                                       !- Interpolate to Timestep
  6,                                      !- Hour 1
  0,                                      !- Minute 1
  0.5,                                    !- Value Until Time 1
  18,                                     !- Hour 2
  0,                                      !- Minute 2
  1,                                      !- Value Until Time 2
  20,                                     !- Hour 3
  0,                                      !- Minute 3
  0.8,                                    !- Value Until Time 3
  24,                                     !- Hour 4
  0,                                      !- Minute 4
  0.5;                                    !- Value Until Time 4

OS:Schedule:Day,
  {a669d977-82f7-4ad7-8b90-1e393efbf15a}, !- Handle
  0400|2200|Hospital|Hospital Critical Equip|elec_equip Summer Design Day, !- Name
  {33635b07-1e64-4087-8d02-513ddb620b63}, !- Schedule Type Limits Name
  ,                                       !- Interpolate to Timestep
  24,                                     !- Hour 1
  0,                                      !- Minute 1
  1;                                      !- Value Until Time 1

OS:Schedule:Day,
  {58c9b8bf-e5da-4a38-90d4-dc64be274e8a}, !- Handle
  0400|2200|Hospital|Hospital Critical Equip|elec_equip Winter Design Day, !- Name
  {33635b07-1e64-4087-8d02-513ddb620b63}, !- Schedule Type Limits Name
  ,                                       !- Interpolate to Timestep
  24,                                     !- Hour 1
  0,                                      !- Minute 1
  0.5;                                    !- Value Until Time 1

OS:Schedule:Ruleset,
  {be329c7e-a596-4401-a163-d3b92df5570e}, !- Handle
  0400|2200|Hospital|ICU_Open|elec_equip, !- Name
  {33635b07-1e64-4087-8d02-513ddb620b63}, !- Schedule Type Limits Name
  {1aad6410-a3a2-4621-a43a-da54ef94ca6f}, !- Default Day Schedule Name
  {80ec8c88-f49a-44fb-9a66-3a22704cc08a}, !- Summer Design Day Schedule Name
  {78acf255-af8a-4f42-84ed-2312f78b9ba7}; !- Winter Design Day Schedule Name

OS:Schedule:Day,
  {1aad6410-a3a2-4621-a43a-da54ef94ca6f}, !- Handle
  0400|2200|Hospital|ICU_Open|elec_equip |default, !- Name
  {33635b07-1e64-4087-8d02-513ddb620b63}, !- Schedule Type Limits Name
  ,                                       !- Interpolate to Timestep
  6,                                      !- Hour 1
  0,                                      !- Minute 1
  0.5,                                    !- Value Until Time 1
  18,                                     !- Hour 2
  0,                                      !- Minute 2
  1,                                      !- Value Until Time 2
  20,                                     !- Hour 3
  0,                                      !- Minute 3
  0.8,                                    !- Value Until Time 3
  24,                                     !- Hour 4
  0,                                      !- Minute 4
  0.5;                                    !- Value Until Time 4

OS:Schedule:Day,
  {80ec8c88-f49a-44fb-9a66-3a22704cc08a}, !- Handle
  0400|2200|Hospital|ICU_Open|elec_equip Summer Design Day, !- Name
  {33635b07-1e64-4087-8d02-513ddb620b63}, !- Schedule Type Limits Name
  ,                                       !- Interpolate to Timestep
  24,                                     !- Hour 1
  0,                                      !- Minute 1
  1;                                      !- Value Until Time 1

OS:Schedule:Day,
  {78acf255-af8a-4f42-84ed-2312f78b9ba7}, !- Handle
  0400|2200|Hospital|ICU_Open|elec_equip Winter Design Day, !- Name
  {33635b07-1e64-4087-8d02-513ddb620b63}, !- Schedule Type Limits Name