
OS:Version,
  {a31b3d1b-80fa-4062-9d6b-f3944e5af3bd}, !- Handle
  1.6.0;                                  !- Version Identifier

OS:ClimateZones,
  {135edfab-17e7-40db-a436-27d385a8cd6d}, !- Handle
  ,                                       !- Active Institution
  ,                                       !- Active Year
  ASHRAE,                                 !- Climate Zone Institution Name 1
  ANSI/ASHRAE Standard 169,               !- Climate Zone Document Name 1
  2006,                                   !- Climate Zone Document Year 1
  ,                                       !- Climate Zone Value 1
  CEC,                                    !- Climate Zone Institution Name 2
  California Climate Zone Descriptions,   !- Climate Zone Document Name 2
  1995,                                   !- Climate Zone Document Year 2
  ;                                       !- Climate Zone Value 2

OS:YearDescription,
  {513d8dda-86cb-442a-b01c-1f7f0e0ac70e}; !- Handle

OS:RadianceParameters,
  {270a96f1-3c86-4b75-a667-cdf22790e2c8}, !- Handle
  1,                                      !- Accumulated Rays per Record
  0,                                      !- Direct Threshold
  1,                                      !- Direct Certainty
  1,                                      !- Direct Jitter
  1,                                      !- Direct Pretest
  6,                                      !- Ambient Bounces VMX
  2,                                      !- Ambient Bounces DMX
  4050,                                   !- Ambient Divisions VMX
  512,                                    !- Ambient Divisions DMX
  256,                                    !- Ambient Supersamples
  0.001,                                  !- Limit Weight VMX
  0.001,                                  !- Limit Weight DMX
  500,                                    !- Klems Sampling Density
  146;                                    !- Sky Discretization Resolution

OS:SimulationControl,
  {2c487a4c-bac9-4ac5-b669-1e49d9da7c2b}, !- Handle
  ,                                       !- Do Zone Sizing Calculation
  ,                                       !- Do System Sizing Calculation
  ,                                       !- Do Plant Sizing Calculation
  No,                                     !- Run Simulation for Sizing Periods
  ,                                       !- Run Simulation for Weather File Run Periods
  0.04,                                   !- Loads Convergence Tolerance Value
  ,                                       !- Temperature Convergence Tolerance Value {deltaC}
  ,                                       !- Solar Distribution
  ,                                       !- Maximum Number of Warmup Days
  2;                                      !- Minimum Number of Warmup Days

OS:Sizing:Parameters,
  {dde5af6f-7923-4600-a28a-7556673a0266}, !- Handle
  1.25,                                   !- Heating Sizing Factor
  1.15;                                   !- Cooling Sizing Factor

OS:ProgramControl,
  {05027a99-f2b3-4aeb-afc6-1425fbb4371d}; !- Handle

OS:Timestep,
  {4ebc9f1e-4707-402e-9844-67eb1ffbd522}, !- Handle
  2;                                      !- Number of Timesteps per Hour

OS:OutputControl:ReportingTolerances,
  {65797aa2-06a9-45fe-b69d-bc6e060399d3}; !- Handle

OS:ConvergenceLimits,
  {9fc11aba-8822-4f3d-970c-46391ba4040d}; !- Handle

OS:ShadowCalculation,
  {ca758bea-4416-4626-9bba-3d8795c79bd6}, !- Handle
  7,                                      !- Calculation Frequency
  15000;                                  !- Maximum Figures in Shadow Overlap Calculations

OS:SurfaceConvectionAlgorithm:Inside,
  {aaabfc36-718a-4ab0-b622-f186ebb45230}, !- Handle
  TARP;                                   !- Algorithm

OS:SurfaceConvectionAlgorithm:Outside,
  {9a0a9f6f-4bbd-4b12-a121-9492a1fcd7d6}, !- Handle
  DOE-2;                                  !- Algorithm

OS:HeatBalanceAlgorithm,
  {9d93e563-e1e0-46d7-9e39-d1c8aceb7212}, !- Handle
  ConductionTransferFunction,             !- Algorithm
  200;                                    !- Surface Temperature Upper Limit {F}

OS:ZoneAirHeatBalanceAlgorithm,
  {8520d93e-310f-4696-9bcd-36228bfdd743}, !- Handle
  AnalyticalSolution;                     !- Algorithm

OS:ZoneAirContaminantBalance,
  {eb5fc3ae-fb22-4160-8fcb-3e3b22b000d3}; !- Handle

OS:ZoneCapacitanceMultiplier:ResearchSpecial,
  {4020ce4f-5a7a-4849-8028-8305d7b751b1}, !- Handle
  ,                                       !- Temperature Capacity Multiplier
  ,                                       !- Humidity Capacity Multiplier
  ;                                       !- Carbon Dioxide Capacity Multiplier

OS:RunPeriod,
  {28df894d-6af9-4fb8-8f56-df1753344aa3}, !- Handle
  Run Period 1,                           !- Name
  1,                                      !- Begin Month
  1,                                      !- Begin Day of Month
  12,                                     !- End Month
  31,                                     !- End Day of Month
  ,                                       !- Use Weather File Holidays and Special Days
  ,                                       !- Use Weather File Daylight Saving Period
  ,                                       !- Apply Weekend Holiday Rule
  ,                                       !- Use Weather File Rain Indicators
  ,                                       !- Use Weather File Snow Indicators
  ;                                       !- Number of Times Runperiod to be Repeated

OS:Building,
  {bf305633-c5a1-4881-9edf-ca5e1a8e1274}, !- Handle
  Building 1,                             !- Name
  ,                                       !- Building Sector Type
  ,                                       !- North Axis {deg}
  ,                                       !- Nominal Floor to Floor Height {m}
  ,                                       !- Space Type Name
  ,                                       !- Default Construction Set Name
  {34a11744-5685-4964-90a9-2311e17e4395}, !- Default Schedule Set Name
  ,                                       !- Standards Number of Stories
  ,                                       !- Standards Number of Above Ground Stories
  Hospital;                               !- Standards Building Type

OS:LifeCycleCost:Parameters,
  {231cf8a0-f0e7-4251-a99f-11f0d464e661}, !- Handle
  FEMP,                                   !- Analysis Type
  ,                                       !- Discounting Convention
  ,                                       !- Inflation Approach
  ,                                       !- Real Discount Rate
  ,                                       !- Nominal Discount Rate
  ,                                       !- Inflation
  ,                                       !- Base Date Month
  ,                                       !- Base Date Year
  ,                                       !- Service Date Month
  ,                                       !- Service Date Year
  ,                                       !- Length of Study Period in Years
  ,                                       !- Tax Rate
  ,                                       !- Depreciation Method
  Yes;                                    !- Use NIST Fuel Escalation Rates

OS:Facility,
  {3ba8e45b-b833-44eb-a723-ea6c3946dc96}; !- Handle

OS:SpaceType,
  {56323e86-4c7d-488a-8aea-e194297f9c85}, !- Handle
  Hospital|BlendPat|DOE Ref 2004|ASHRAE 169-2006-5A, !- Name
  {5523f651-5489-41f9-9a1f-064c5c5cbca1}, !- Default Construction Set Name
  ,                                       !- Default Schedule Set Name
  {87864a5a-5c16-4b48-9559-7c40252c0f56}, !- Group Rendering Name
  {e0d603f4-1ba1-4507-bc99-c4e3a71d58ff}, !- Design Specification Outdoor Air Object Name
  Hospital,                               !- Standards Building Type
  BlendPat;                               !- Standards Space Type

OS:Rendering:Color,
  {87864a5a-5c16-4b48-9559-7c40252c0f56}, !- Handle
  Rendering Color 1,                      !- Name
  31,                                     !- Rendering Red Value
  162,                                    !- Rendering Green Value
  169;                                    !- Rendering Blue Value

OS:SpaceType,
  {61716aab-bba8-4b44-a420-ffe43bf145c6}, !- Handle
  Hospital|BlendCirc|DOE Ref 2004|ASHRAE 169-2006-5A, !- Name
  {5523f651-5489-41f9-9a1f-064c5c5cbca1}, !- Default Construction Set Name
  ,                                       !- Default Schedule Set Name
  {c48073ca-782b-4270-b2ab-a1e1da8582bc}, !- Group Rendering Name
  {417d0751-8345-4a2f-9eb3-0d7e2e35f54f}, !- Design Specification Outdoor Air Object Name
  Hospital,                               !- Standards Building Type
  BlendCirc;                              !- Standards Space Type

OS:Rendering:Color,
  {c48073ca-782b-4270-b2ab-a1e1da8582bc}, !- Handle
  Rendering Color 2,                      !- Name
  169,                                    !- Rendering Red Value
  31,                                     !- Rendering Green Value
  31;                                     !- Rendering Blue Value

OS:SpaceType,
  {5df70708-2608-4e1d-abfc-8f55847e13b0}, !- Handle
  Hospital|Kitchen|DOE Ref 2004|ASHRAE 169-2006-5A, !- Name
  {5523f651-5489-41f9-9a1f-064c5c5cbca1}, !- Default Construction Set Name
  {749c40cf-e139-495f-8b26-17618fd20cf6}, !- Default Schedule Set Name
  {a3441c61-3a52-4401-b9e0-b1ef81fbbbd9}, !- Group Rendering Name
  {858a4ca3-f5c4-4623-baca-3451317f98a1}, !- Design Specification Outdoor Air Object Name
  Hospital,                               !- Standards Building Type
  Kitchen;                                !- Standards Space Type

OS:Rendering:Color,
  {a3441c61-3a52-4401-b9e0-b1ef81fbbbd9}, !- Handle
  Rendering Color 3,                      !- Name
  78,                                     !- Rendering Red Value
  222,                                    !- Rendering Green Value
  133;                                    !- Rendering Blue Value

OS:SpaceType,
  {efc29d36-b0a3-4fd4-a6b7-c75fc0b132ec}, !- Handle
  Hospital|Dining|DOE Ref 2004|ASHRAE 169-2006-5A, !- Name
  {5523f651-5489-41f9-9a1f-064c5c5cbca1}, !- Default Construction Set Name
  {fd033507-a326-40c4-938a-af0e2cd70e85}, !- Default Schedule Set Name
  {c3cddc47-f9d2-4e21-b945-d908dd74c82d}, !- Group Rendering Name
  {d0e6b76b-ec09-449c-b7d6-6005aec5c36a}, !- Design Specification Outdoor Air Object Name
  Hospital,                               !- Standards Building Type
  Dining;                                 !- Standards Space Type

OS:Rendering:Color,
  {c3cddc47-f9d2-4e21-b945-d908dd74c82d}, !- Handle
  Rendering Color 4,                      !- Name
  31,                                     !- Rendering Red Value
  169,                                    !- Rendering Green Value
  34;                                     !- Rendering Blue Value

OS:SpaceType,
  {366004ed-4b45-46a0-8673-09ba689ca2fc}, !- Handle
  Hospital|Lab|DOE Ref 2004|ASHRAE 169-2006-5A, !- Name
  {5523f651-5489-41f9-9a1f-064c5c5cbca1}, !- Default Construction Set Name
  {08b89987-8062-49a7-9927-8f5ca0872980}, !- Default Schedule Set Name
  {92dd8b7d-d284-4993-b6fc-60a762c7c9c5}, !- Group Rendering Name
  {952dfc28-fdf9-4501-acd1-9b2145f76645}, !- Design Specification Outdoor Air Object Name
  Hospital,                               !- Standards Building Type
  Lab;                                    !- Standards Space Type

OS:Rendering:Color,
  {92dd8b7d-d284-4993-b6fc-60a762c7c9c5}, !- Handle
  Rendering Color 5,                      !- Name
  204,                                    !- Rendering Red Value
  120,                                    !- Rendering Green Value
  230;                                    !- Rendering Blue Value

OS:SpaceType,
  {ae44d189-d7f3-4137-ae00-d2a89784ee0c}, !- Handle
  Hospital|Radiology|DOE Ref 2004|ASHRAE 169-2006-5A, !- Name
  {5523f651-5489-41f9-9a1f-064c5c5cbca1}, !- Default Construction Set Name
  {931f4262-bd40-4274-bf08-34894553636d}, !- Default Schedule Set Name
  {254ac92f-df7f-4945-8303-be1243c4702b}, !- Group Rendering Name
  {0f394ca6-c63f-4e6d-a51d-95e03c174582}, !- Design Specification Outdoor Air Object Name
  Hospital,                               !- Standards Building Type
  Radiology;                              !- Standards Space Type

OS:Rendering:Color,
  {254ac92f-df7f-4945-8303-be1243c4702b}, !- Handle
  Rendering Color 6,                      !- Name
  136,                                    !- Rendering Red Value
  78,                                     !- Rendering Green Value
  222;                                    !- Rendering Blue Value

OS:Schedule:Ruleset,
  {4aebd5b5-ebb9-49ae-a798-aa8661502dee}, !- Handle
  0400|2200|Hospital|default|hoo,         !- Name
  {197cf341-f3f6-422b-af92-a33ed1745780}, !- Schedule Type Limits Name
  {76e5f1ab-a19d-4aff-8b1d-9806c9a385d2}, !- Default Day Schedule Name
  {7e3e419c-7eab-4aa8-8733-9731892cce0a}, !- Summer Design Day Schedule Name
  {1dba09b5-88dc-4f47-b4ce-60eee5b51c7b}; !- Winter Design Day Schedule Name

OS:Schedule:Day,
  {76e5f1ab-a19d-4aff-8b1d-9806c9a385d2}, !- Handle
  0400|2200|Hospital|default|hoo Schedule Week Day, !- Name
  {197cf341-f3f6-422b-af92-a33ed1745780}, !- Schedule Type Limits Name
  ,                                       !- Interpolate to Timestep
  4,                                      !- Hour 1
  0,                                      !- Minute 1
  0,                                      !- Value Until Time 1
  22,                                     !- Hour 2
  0,                                      !- Minute 2
  1,                                      !- Value Until Time 2
  24,                                     !- Hour 3
  0,                                      !- Minute 3
  0;                                      !- Value Until Time 3

OS:Schedule:Day,
  {82e303b5-d7b4-40bc-8e02-db6fa80b4648}, !- Handle
  Schedule Day 2,                         !- Name
  ,                                       !- Schedule Type Limits Name
  ,                                       !- Interpolate to Timestep
  24,                                     !- Hour 1
  0,                                      !- Minute 1
  0;                                      !- Value Until Time 1

OS:Schedule:Day,
  {1dba09b5-88dc-4f47-b4ce-60eee5b51c7b}, !- Handle
  0400|2200|Hospital|default|hoo Winter Design Day, !- Name
  {197cf341-f3f6-422b-af92-a33ed1745780}, !- Schedule Type Limits Name
  ,                                       !- Interpolate to Timestep
  24,                                     !- Hour 1
  0,                                      !- Minute 1
  0;                                      !- Value Until Time 1

OS:Schedule:Day,
  {ce4a1df0-ef5f-4991-b980-487b2a396a34}, !- Handle
  Schedule Day 3,                         !- Name
  ,                                       !- Schedule Type Limits Name
  ,                                       !- Interpolate to Timestep
  24,                                     !- Hour 1
  0,                                      !- Minute 1
  0;                                      !- Value Until Time 1

OS:Schedule:Day,
  {7e3e419c-7eab-4aa8-8733-9731892cce0a}, !- Handle
  0400|2200|Hospital|default|hoo Summer Design Day, !- Name
  {197cf341-f3f6-422b-af92-a33ed1745780}, !- Schedule Type Limits Name
  ,                                       !- Interpolate to Timestep
  24,                                     !- Hour 1
  0,                                      !- Minute 1
  1;                                      !- Value Until Time 1

OS:DefaultScheduleSet,
  {34a11744-5685-4964-90a9-2311e17e4395}, !- Handle
  Building Hours of Operation,            !- Name
  {4aebd5b5-ebb9-49ae-a798-aa8661502dee}, !- Hours of Operation Schedule Name
  ,                                       !- Number of People Schedule Name
  ,                                       !- People Activity Level Schedule Name
  ,                                       !- Lighting Schedule Name
  ,                                       !- Electric Equipment Schedule Name
  ,                                       !- Gas Equipment Schedule Name
  ,                                       !- Hot Water Equipment Schedule Name
  ,                                       !- Infiltration Schedule Name
  ,                                       !- Steam Equipment Schedule Name
  ;                                       !- Other Equipment Schedule Name

OS:ScheduleTypeLimits,
  {197cf341-f3f6-422b-af92-a33ed1745780}, !- Handle
  OnOff,                                  !- Name
  0,                                      !- Lower Limit Value {BasedOnField A4}
  1,                                      !- Upper Limit Value {BasedOnField A4}
  Discrete,                               !- Numeric Type
  Availability;                           !- Unit Type

OS:Schedule:Ruleset,
  {99fd7538-5a28-4b03-b81c-c0c2e36f7ccf}, !- Handle
  0400|2200|Hospital|Corridor|htg_setpoint, !- Name
  {a7551d35-a020-413f-9f3d-dfa06eaa8315}, !- Schedule Type Limits Name
  {90484d8a-c53d-4f14-a011-a7f0d898472e}, !- Default Day Schedule Name
  {af3af584-b62d-4cd5-b231-8f0de5896b4b}, !- Summer Design Day Schedule Name
  {85178d92-3842-4118-a0a5-487b58a17919}; !- Winter Design Day Schedule Name

OS:ScheduleTypeLimits,
  {a7551d35-a020-413f-9f3d-dfa06eaa8315}, !- Handle
  Thermostat Heating Setpoint Schedule Type Limits, !- Name
  0,                                      !- Lower Limit Value {BasedOnField A4}
  100,                                    !- Upper Limit Value {BasedOnField A4}
  Continuous,                             !- Numeric Type
  Temperature;                            !- Unit Type

OS:Schedule:Day,
  {90484d8a-c53d-4f14-a011-a7f0d898472e}, !- Handle
  0400|2200|Hospital|Corridor|htg_setpoint |default, !- Name
  {a7551d35-a020-413f-9f3d-dfa06eaa8315}, !- Schedule Type Limits Name
  ,                                       !- Interpolate to Timestep
  24,                                     !- Hour 1
  0,                                      !- Minute 1
  21.1;                                   !- Value Until Time 1

OS:Schedule:Day,
  {af3af584-b62d-4cd5-b231-8f0de5896b4b}, !- Handle
  0400|2200|Hospital|Corridor|htg_setpoint Summer Design Day, !- Name
  {a7551d35-a020-413f-9f3d-dfa06eaa8315}, !- Schedule Type Limits Name
  ,                                       !- Interpolate to Timestep
  24,                                     !- Hour 1
  0,                                      !- Minute 1
  21.1;                                   !- Value Until Time 1

OS:Schedule:Day,
  {85178d92-3842-4118-a0a5-487b58a17919}, !- Handle
  0400|2200|Hospital|Corridor|htg_setpoint Winter Design Day, !- Name
  {a7551d35-a020-413f-9f3d-dfa06eaa8315}, !- Schedule Type Limits Name
  ,                                       !- Interpolate to Timestep
  24,                                     !- Hour 1
  0,                                      !- Minute 1
  21.1;                                   !- Value Until Time 1

OS:Schedule:Ruleset,
  {102fe5f4-0a98-4abe-ba92-ea79af7801ab}, !- Handle
  0400|2200|Hospital|ICUOpen|clg_setpoint, !- Name
  {57129db8-2f51-4081-ac7f-017b3326f020}, !- Schedule Type Limits Name
  {2077015f-4a12-4bc4-ae92-af91c9d9c273}, !- Default Day Schedule Name
  {f719e28c-d399-4f08-9f81-f85422720936}, !- Summer Design Day Schedule Name
  {d887a6e7-1998-48de-9067-d11db5773086}; !- Winter Design Day Schedule Name

OS:ScheduleTypeLimits,
  {57129db8-2f51-4081-ac7f-017b3326f020}, !- Handle
  Thermostat Cooling Setpoint Schedule Type Limits, !- Name
  0,                                      !- Lower Limit Value {BasedOnField A4}
  100,                                    !- Upper Limit Value {BasedOnField A4}
  Continuous,                             !- Numeric Type
  Temperature;                            !- Unit Type

OS:Schedule:Day,
  {2077015f-4a12-4bc4-ae92-af91c9d9c273}, !- Handle
  0400|2200|Hospital|ICUOpen|clg_setpoint |default, !- Name
  {57129db8-2f51-4081-ac7f-017b3326f020}, !- Schedule Type Limits Name
  ,                                       !- Interpolate to Timestep
  24,                                     !- Hour 1
  0,                                      !- Minute 1
  22.2;                                   !- Value Until Time 1

OS:Schedule:Day,
  {f719e28c-d399-4f08-9f81-f85422720936}, !- Handle
  0400|2200|Hospital|ICUOpen|clg_setpoint Summer Design Day, !- Name
  {57129db8-2f51-4081-ac7f-017b3326f020}, !- Schedule Type Limits Name
  ,                                       !- Interpolate to Timestep
  24,                                     !- Hour 1
  0,                                      !- Minute 1
  22.2;                                   !- Value Until Time 1

OS:Schedule:Day,
  {d887a6e7-1998-48de-9067-d11db5773086}, !- Handle
  0400|2200|Hospital|ICUOpen|clg_setpoint Winter Design Day, !- Name
  {57129db8-2f51-4081-ac7f-017b3326f020}, !- Schedule Type Limits Name
  ,                                       !- Interpolate to Timestep
  24,                                     !- Hour 1
  0,                                      !- Minute 1
  22.2;                                   !- Value Until Time 1

OS:Schedule:Ruleset,
  {f1f20fd7-cdbb-49e1-8908-e77c1077a917}, !- Handle
  0400|2200|Hospital|OR|htg_setpoint,     !- Name
  {a7551d35-a020-413f-9f3d-dfa06eaa8315}, !- Schedule Type Limits Name
  {b1c53e79-f8fd-4cf3-aa86-c05bcf93681c}, !- Default Day Schedule Name
  {f42cc2f1-51f2-4e6d-8719-34c2ecdb3195}, !- Summer Design Day Schedule Name
  {90085dfa-2d07-442a-9c4d-e4df6955bcac}; !- Winter Design Day Schedule Name

OS:Schedule:Day,
  {b1c53e79-f8fd-4cf3-aa86-c05bcf93681c}, !- Handle
  0400|2200|Hospital|OR|htg_setpoint |default, !- Name
  {a7551d35-a020-413f-9f3d-dfa06eaa8315}, !- Schedule Type Limits Name
  ,                                       !- Interpolate to Timestep
  24,                                     !- Hour 1
  0,                                      !- Minute 1
  18.3;                                   !- Value Until Time 1

OS:Schedule:Day,
  {f42cc2f1-51f2-4e6d-8719-34c2ecdb3195}, !- Handle
  0400|2200|Hospital|OR|htg_setpoint Summer Design Day, !- Name
  {a7551d35-a020-413f-9f3d-dfa06eaa8315}, !- Schedule Type Limits Name
  ,                                       !- Interpolate to Timestep
  24,                                     !- Hour 1
  0,                                      !- Minute 1
  18.3;                                   !- Value Until Time 1

OS:Schedule:Day,
  {90085dfa-2d07-442a-9c4d-e4df6955bcac}, !- Handle
  0400|2200|Hospital|OR|htg_setpoint Winter Design Day, !- Name
  {a7551d35-a020-413f-9f3d-dfa06eaa8315}, !- Schedule Type Limits Name
  ,                                       !- Interpolate to Timestep
  24,                                     !- Hour 1
  0,                                      !- Minute 1
  18.3;                                   !- Value Until Time 1

OS:Schedule:Ruleset,
  {ff9c27f0-f3b9-4586-ae1c-dfbd56b759d1}, !- Handle
  0400|2200|Hospital|ERTriage|elec_equip, !- Name
  {5bf16621-7a99-404a-9ca9-33491cd59e66}, !- Schedule Type Limits Name
  {b2619f08-ba94-4ad9-82ac-8979ebf5f3a0}, !- Default Day Schedule Name
  {d8f84f40-f5a5-4f9d-a76f-739fe0e1713a}, !- Summer Design Day Schedule Name
  {94b7b17b-c0b7-49f7-9c26-1ba03d578ba9}; !- Winter Design Day Schedule Name

OS:ScheduleTypeLimits,
  {5bf16621-7a99-404a-9ca9-33491cd59e66}, !- Handle
  Equipment Schedule Type Limits,         !- Name
  0,                                      !- Lower Limit Value {BasedOnField A4}
  1,                                      !- Upper Limit Value {BasedOnField A4}
  Continuous,                             !- Numeric Type
  Dimensionless;                          !- Unit Type

OS:Schedule:Day,
  {b2619f08-ba94-4ad9-82ac-8979ebf5f3a0}, !- Handle
  0400|2200|Hospital|ERTriage|elec_equip |default, !- Name
  {5bf16621-7a99-404a-9ca9-33491cd59e66}, !- Schedule Type Limits Name
  ,                                       !- Interpolate to Timestep
  6,                                      !- Hour 1
  0,                                      !- Minute 1
  0.5,                                    !- Value Until Time 1
  18,                                     !- Hour 2
  0,                                      !- Minute 2
  1,                                      !- Value Until Time 2
  20,                                     !- Hour 3
  0,                                      !- Minute 3
  0.8,                                    !- Value Until Time 3
  24,                                     !- Hour 4
  0,                                      !- Minute 4
  0.5;                                    !- Value Until Time 4

OS:Schedule:Day,
  {d8f84f40-f5a5-4f9d-a76f-739fe0e1713a}, !- Handle
  0400|2200|Hospital|ERTriage|elec_equip Summer Design Day, !- Name
  {5bf16621-7a99-404a-9ca9-33491cd59e66}, !- Schedule Type Limits Name
  ,                                       !- Interpolate to Timestep
  24,                                     !- Hour 1
  0,                                      !- Minute 1
  1;                                      !- Value Until Time 1

OS:Schedule:Day,
  {94b7b17b-c0b7-49f7-9c26-1ba03d578ba9}, !- Handle
  0400|2200|Hospital|ERTriage|elec_equip Winter Design Day, !- Name
  {5bf16621-7a99-404a-9ca9-33491cd59e66}, !- Schedule Type Limits Name
  ,                                       !- Interpolate to Timestep
  24,                                     !- Hour 1
  0,                                      !- Minute 1
  0.5;                                    !- Value Until Time 1

OS:Schedule:Ruleset,
  {9f9c2017-e8f9-4b0c-b587-db3e1a60cfba}, !- Handle
  0400|2200|Hospital|ERExam|clg_setpoint, !- Name
  {57129db8-2f51-4081-ac7f-017b3326f020}, !- Schedule Type Limits Name
  {047bc1e4-60fa-4762-b4d5-3c6da497bf00}, !- Default Day Schedule Name
  {dd2c5bbb-9772-41ce-8e7b-c4aba5a60128}, !- Summer Design Day Schedule Name
  {848cb9f1-c6b7-44ba-ba81-bcf8d36a97bf}; !- Winter Design Day Schedule Name

OS:Schedule:Day,
  {047bc1e4-60fa-4762-b4d5-3c6da497bf00}, !- Handle
  0400|2200|Hospital|ERExam|clg_setpoint |default, !- Name
  {57129db8-2f51-4081-ac7f-017b3326f020}, !- Schedule Type Limits Name
  ,                                       !- Interpolate to Timestep
  24,                                     !- Hour 1
  0,                                      !- Minute 1
  22.2;                                   !- Value Until Time 1

OS:Schedule:Day,
  {dd2c5bbb-9772-41ce-8e7b-c4aba5a60128}, !- Handle
  0400|2200|Hospital|ERExam|clg_setpoint Summer Design Day, !- Name
  {57129db8-2f51-4081-ac7f-017b3326f020}, !- Schedule Type Limits Name
  ,                                       !- Interpolate to Timestep
  24,                                     !- Hour 1
  0,                                      !- Minute 1
  22.2;                                   !- Value Until Time 1

OS:Schedule:Day,
  {848cb9f1-c6b7-44ba-ba81-bcf8d36a97bf}, !- Handle
  0400|2200|Hospital|ERExam|clg_setpoint Winter Design Day, !- Name
  {57129db8-2f51-4081-ac7f-017b3326f020}, !- Schedule Type Limits Name
  ,                                       !- Interpolate to Timestep
  24,                                     !- Hour 1
  0,                                      !- Minute 1
  22.2;                                   !- Value Until Time 1

OS:Schedule:Ruleset,
  {311ed5af-4278-4426-bd70-7d425abb6c59}, !- Handle
  0400|2200|Hospital|default|hvac,        !- Name
  {bffa9644-b7ce-446f-b878-3bb60bd99048}, !- Schedule Type Limits Name
  {1b3ba544-501d-4d5e-9237-e49907fe3463}, !- Default Day Schedule Name
  {aeab0213-9adf-4da0-8e43-0e1082b923a6}, !- Summer Design Day Schedule Name
  {5ef8dfaf-84b7-47c9-9b24-378b97967b09}; !- Winter Design Day Schedule Name

OS:ScheduleTypeLimits,
  {bffa9644-b7ce-446f-b878-3bb60bd99048}, !- Handle
  HVAC Operation Schedule Type Limits,    !- Name
  0,                                      !- Lower Limit Value {BasedOnField A4}
  1,                                      !- Upper Limit Value {BasedOnField A4}
  Discrete,                               !- Numeric Type
  Availability;                           !- Unit Type

OS:Schedule:Day,
  {1b3ba544-501d-4d5e-9237-e49907fe3463}, !- Handle
  0400|2200|Hospital|default|hvac |default, !- Name
  {bffa9644-b7ce-446f-b878-3bb60bd99048}, !- Schedule Type Limits Name
  ,                                       !- Interpolate to Timestep
  24,                                     !- Hour 1
  0,                                      !- Minute 1
  1;                                      !- Value Until Time 1

OS:Schedule:Day,
  {aeab0213-9adf-4da0-8e43-0e1082b923a6}, !- Handle
  0400|2200|Hospital|default|hvac Summer Design Day, !- Name
  {bffa9644-b7ce-446f-b878-3bb60bd99048}, !- Schedule Type Limits Name
  ,                                       !- Interpolate to Timestep
  24,                                     !- Hour 1
  0,                                      !- Minute 1
  1;                                      !- Value Until Time 1

OS:Schedule:Day,
  {5ef8dfaf-84b7-47c9-9b24-378b97967b09}, !- Handle
  0400|2200|Hospital|default|hvac Winter Design Day, !- Name
  {bffa9644-b7ce-446f-b878-3bb60bd99048}, !- Schedule Type Limits Name
  ,                                       !- Interpolate to Timestep
  24,                                     !- Hour 1
  0,                                      !- Minute 1
  1;                                      !- Value Until Time 1

OS:Schedule:Ruleset,
  {196752eb-8356-40a1-a501-4fe447d8dca8}, !- Handle
  0400|2200|Hospital|default|lighting,    !- Name
  {233da38f-297c-479a-b42e-b5c8c4e4ee5c}, !- Schedule Type Limits Name
  {cabd6aec-b3f3-478e-b20a-f70c19f3b916}, !- Default Day Schedule Name
  {f22a840d-1f0c-4fbd-a18d-cee9ed47842e}, !- Summer Design Day Schedule Name
  {0029a331-5c51-493d-a0b9-a34a8e45b05b}; !- Winter Design Day Schedule Name

OS:ScheduleTypeLimits,