
OS:Version,
  {21400db0-9477-44d6-8834-8226b38486db}, !- Handle
  1.6.0;                                  !- Version Identifier

OS:ClimateZones,
  {135edfab-17e7-40db-a436-27d385a8cd6d}, !- Handle
  ,                                       !- Active Institution
  ,                                       !- Active Year
  ASHRAE,                                 !- Climate Zone Institution Name 1
  ANSI/ASHRAE Standard 169,               !- Climate Zone Document Name 1
  2006,                                   !- Climate Zone Document Year 1
  ,                                       !- Climate Zone Value 1
  CEC,                                    !- Climate Zone Institution Name 2
  California Climate Zone Descriptions,   !- Climate Zone Document Name 2
  1995,                                   !- Climate Zone Document Year 2
  ;                                       !- Climate Zone Value 2

OS:YearDescription,
  {513d8dda-86cb-442a-b01c-1f7f0e0ac70e}; !- Handle

OS:RadianceParameters,
  {270a96f1-3c86-4b75-a667-cdf22790e2c8}, !- Handle
  1,                                      !- Accumulated Rays per Record
  0,                                      !- Direct Threshold
  1,                                      !- Direct Certainty
  1,                                      !- Direct Jitter
  1,                                      !- Direct Pretest
  6,                                      !- Ambient Bounces VMX
  2,                                      !- Ambient Bounces DMX
  4050,                                   !- Ambient Divisions VMX
  512,                                    !- Ambient Divisions DMX
  256,                                    !- Ambient Supersamples
  0.001,                                  !- Limit Weight VMX
  0.001,                                  !- Limit Weight DMX
  500,                                    !- Klems Sampling Density
  146;                                    !- Sky Discretization Resolution

OS:SimulationControl,
  {2c487a4c-bac9-4ac5-b669-1e49d9da7c2b}, !- Handle
  ,                                       !- Do Zone Sizing Calculation
  ,                                       !- Do System Sizing Calculation
  ,                                       !- Do Plant Sizing Calculation
  No,                                     !- Run Simulation for Sizing Periods
  ,                                       !- Run Simulation for Weather File Run Periods
  0.04,                                   !- Loads Convergence Tolerance Value
  ,                                       !- Temperature Convergence Tolerance Value {deltaC}
  ,                                       !- Solar Distribution
  ,                                       !- Maximum Number of Warmup Days
  2;                                      !- Minimum Number of Warmup Days

OS:Sizing:Parameters,
  {dde5af6f-7923-4600-a28a-7556673a0266}, !- Handle
  1.25,                                   !- Heating Sizing Factor
  1.15;                                   !- Cooling Sizing Factor

OS:ProgramControl,
  {05027a99-f2b3-4aeb-afc6-1425fbb4371d}; !- Handle

OS:Timestep,
  {4ebc9f1e-4707-402e-9844-67eb1ffbd522}, !- Handle
  2;                                      !- Number of Timesteps per Hour

OS:OutputControl:ReportingTolerances,
  {65797aa2-06a9-45fe-b69d-bc6e060399d3}; !- Handle

OS:ConvergenceLimits,
  {9fc11aba-8822-4f3d-970c-46391ba4040d}; !- Handle

OS:ShadowCalculation,
  {ca758bea-4416-4626-9bba-3d8795c79bd6}, !- Handle
  7,                                      !- Calculation Frequency
  15000;                                  !- Maximum Figures in Shadow Overlap Calculations

OS:SurfaceConvectionAlgorithm:Inside,
  {aaabfc36-718a-4ab0-b622-f186ebb45230}, !- Handle
  TARP;                                   !- Algorithm

OS:SurfaceConvectionAlgorithm:Outside,
  {9a0a9f6f-4bbd-4b12-a121-9492a1fcd7d6}, !- Handle
  DOE-2;                                  !- Algorithm

OS:HeatBalanceAlgorithm,
  {9d93e563-e1e0-46d7-9e39-d1c8aceb7212}, !- Handle
  ConductionTransferFunction,             !- Algorithm
  200;                                    !- Surface Temperature Upper Limit {F}

OS:ZoneAirHeatBalanceAlgorithm,
  {8520d93e-310f-4696-9bcd-36228bfdd743}, !- Handle
  AnalyticalSolution;                     !- Algorithm

OS:ZoneAirContaminantBalance,
  {eb5fc3ae-fb22-4160-8fcb-3e3b22b000d3}; !- Handle

OS:ZoneCapacitanceMultiplier:ResearchSpecial,
  {4020ce4f-5a7a-4849-8028-8305d7b751b1}, !- Handle
  ,                                       !- Temperature Capacity Multiplier
  ,                                       !- Humidity Capacity Multiplier
  ;                                       !- Carbon Dioxide Capacity Multiplier

OS:RunPeriod,
  {28df894d-6af9-4fb8-8f56-df1753344aa3}, !- Handle
  Run Period 1,                           !- Name
  1,                                      !- Begin Month
  1,                                      !- Begin Day of Month
  12,                                     !- End Month
  31,                                     !- End Day of Month
  ,                                       !- Use Weather File Holidays and Special Days
  ,                                       !- Use Weather File Daylight Saving Period
  ,                                       !- Apply Weekend Holiday Rule
  ,                                       !- Use Weather File Rain Indicators
  ,                                       !- Use Weather File Snow Indicators
  ;                                       !- Number of Times Runperiod to be Repeated

OS:Building,
  {bf305633-c5a1-4881-9edf-ca5e1a8e1274}, !- Handle
  Building 1,                             !- Name
  ,                                       !- Building Sector Type
  ,                                       !- North Axis {deg}
  ,                                       !- Nominal Floor to Floor Height {m}
  ,                                       !- Space Type Name
  ,                                       !- Default Construction Set Name
  {93f2ae41-e901-4366-a9f3-3bf65b80395e}, !- Default Schedule Set Name
  ,                                       !- Standards Number of Stories
  ,                                       !- Standards Number of Above Ground Stories
  Hospital;                               !- Standards Building Type

OS:LifeCycleCost:Parameters,
  {231cf8a0-f0e7-4251-a99f-11f0d464e661}, !- Handle
  FEMP,                                   !- Analysis Type
  ,                                       !- Discounting Convention
  ,                                       !- Inflation Approach
  ,                                       !- Real Discount Rate
  ,                                       !- Nominal Discount Rate
  ,                                       !- Inflation
  ,                                       !- Base Date Month
  ,                                       !- Base Date Year
  ,                                       !- Service Date Month
  ,                                       !- Service Date Year
  ,                                       !- Length of Study Period in Years
  ,                                       !- Tax Rate
  ,                                       !- Depreciation Method
  Yes;                                    !- Use NIST Fuel Escalation Rates

OS:Facility,
  {3ba8e45b-b833-44eb-a723-ea6c3946dc96}; !- Handle

OS:SpaceType,
  {3136bc2d-2a8d-4e27-a0f9-995b6731578e}, !- Handle
  Hospital|BlendPat|DOE Ref 1980-2004|ASHRAE 169-2006-5A, !- Name
  {8d6ee113-1230-46bc-8b44-f849c72d5763}, !- Default Construction Set Name
  ,                                       !- Default Schedule Set Name
  {975c84f6-4fd1-4136-92c0-c87c824afc0c}, !- Group Rendering Name
  {92209679-e306-4141-8add-4b0dd2bb9ef1}, !- Design Specification Outdoor Air Object Name
  Hospital,                               !- Standards Building Type
  BlendPat;                               !- Standards Space Type

OS:Rendering:Color,
  {975c84f6-4fd1-4136-92c0-c87c824afc0c}, !- Handle
  Rendering Color 1,                      !- Name
  31,                                     !- Rendering Red Value
  162,                                    !- Rendering Green Value
  169;                                    !- Rendering Blue Value

OS:SpaceType,
  {4fe17f70-12d6-425e-a00b-6a2631f1af17}, !- Handle
  Hospital|BlendCirc|DOE Ref 1980-2004|ASHRAE 169-2006-5A, !- Name
  {8d6ee113-1230-46bc-8b44-f849c72d5763}, !- Default Construction Set Name
  ,                                       !- Default Schedule Set Name
  {bbed4dc8-1501-4f31-9605-7cae46ef4d93}, !- Group Rendering Name
  {91e954b6-eef4-4ed2-8c91-4a340ed276d8}, !- Design Specification Outdoor Air Object Name
  Hospital,                               !- Standards Building Type
  BlendCirc;                              !- Standards Space Type

OS:Rendering:Color,
  {bbed4dc8-1501-4f31-9605-7cae46ef4d93}, !- Handle
  Rendering Color 2,                      !- Name
  169,                                    !- Rendering Red Value
  31,                                     !- Rendering Green Value
  31;                                     !- Rendering Blue Value

OS:SpaceType,
  {6dba3b4a-e497-4dfe-b084-3dcf9ca78233}, !- Handle
  Hospital|Kitchen|DOE Ref 1980-2004|ASHRAE 169-2006-5A, !- Name
  {8d6ee113-1230-46bc-8b44-f849c72d5763}, !- Default Construction Set Name
  {50cfcc2d-7293-4679-9def-ece31d32d7eb}, !- Default Schedule Set Name
  {5fe70ca1-f4d1-401d-bc30-f68c8729bd44}, !- Group Rendering Name
  {be657ac3-9dbd-4955-8074-8a1b3ebe7842}, !- Design Specification Outdoor Air Object Name
  Hospital,                               !- Standards Building Type
  Kitchen;                                !- Standards Space Type

OS:Rendering:Color,
  {5fe70ca1-f4d1-401d-bc30-f68c8729bd44}, !- Handle
  Rendering Color 3,                      !- Name
  78,                                     !- Rendering Red Value
  222,                                    !- Rendering Green Value
  133;                                    !- Rendering Blue Value

OS:SpaceType,
  {7b39c40c-b8df-4731-984d-0fd350eaf896}, !- Handle
  Hospital|Dining|DOE Ref 1980-2004|ASHRAE 169-2006-5A, !- Name
  {8d6ee113-1230-46bc-8b44-f849c72d5763}, !- Default Construction Set Name
  {a3a940b6-c709-49b8-a4f0-f44621d8f9c8}, !- Default Schedule Set Name
  {55f03486-7475-4f3f-8fbc-26d587fd07ea}, !- Group Rendering Name
  {547776e9-dc8e-41f3-89d8-fe9ffc0763b5}, !- Design Specification Outdoor Air Object Name
  Hospital,                               !- Standards Building Type
  Dining;                                 !- Standards Space Type

OS:Rendering:Color,
  {55f03486-7475-4f3f-8fbc-26d587fd07ea}, !- Handle
  Rendering Color 4,                      !- Name
  31,                                     !- Rendering Red Value
  169,                                    !- Rendering Green Value
  34;                                     !- Rendering Blue Value

OS:SpaceType,
  {9b13f401-2e3e-456a-9e24-ecd614b972e7}, !- Handle
  Hospital|Lab|DOE Ref 1980-2004|ASHRAE 169-2006-5A, !- Name
  {8d6ee113-1230-46bc-8b44-f849c72d5763}, !- Default Construction Set Name
  {5e904164-1802-4348-8b70-bbad2dcdb2aa}, !- Default Schedule Set Name
  {6541b4b4-90f9-458d-b51d-da553a4b4fe1}, !- Group Rendering Name
  {9eec630a-1b3a-4fa3-86c5-6b1c8284ad88}, !- Design Specification Outdoor Air Object Name
  Hospital,                               !- Standards Building Type
  Lab;                                    !- Standards Space Type

OS:Rendering:Color,
  {6541b4b4-90f9-458d-b51d-da553a4b4fe1}, !- Handle
  Rendering Color 5,                      !- Name
  204,                                    !- Rendering Red Value
  120,                                    !- Rendering Green Value
  230;                                    !- Rendering Blue Value

OS:SpaceType,
  {939b4d59-5b71-4f09-b16a-39c26d10ff49}, !- Handle
  Hospital|Radiology|DOE Ref 1980-2004|ASHRAE 169-2006-5A, !- Name
  {8d6ee113-1230-46bc-8b44-f849c72d5763}, !- Default Construction Set Name
  {73402719-f362-42a9-a9cf-61a75a368d58}, !- Default Schedule Set Name
  {5f11a45f-3a69-40c7-843f-6f8130acb770}, !- Group Rendering Name
  {9914039a-a759-49b0-869f-53da00bea693}, !- Design Specification Outdoor Air Object Name
  Hospital,                               !- Standards Building Type
  Radiology;                              !- Standards Space Type

OS:Rendering:Color,
  {5f11a45f-3a69-40c7-843f-6f8130acb770}, !- Handle
  Rendering Color 6,                      !- Name
  136,                                    !- Rendering Red Value
  78,                                     !- Rendering Green Value
  222;                                    !- Rendering Blue Value

OS:Schedule:Ruleset,
  {7b463d1e-4a1c-438b-bbe7-5c0544998d56}, !- Handle
  0400|2200|Hospital|default|hoo,         !- Name
  {60e1a8e7-e14f-4ca7-aaa8-1fd06c765d86}, !- Schedule Type Limits Name
  {6a08b31f-970d-43e4-8ab5-8b3128333f8f}, !- Default Day Schedule Name
  {2366db41-1029-4570-a23a-2fbea21b6447}, !- Summer Design Day Schedule Name
  {79970241-2074-4c0d-ad27-f5e435b5d09b}; !- Winter Design Day Schedule Name

OS:Schedule:Day,
  {6a08b31f-970d-43e4-8ab5-8b3128333f8f}, !- Handle
  0400|2200|Hospital|default|hoo Schedule Week Day, !- Name
  {60e1a8e7-e14f-4ca7-aaa8-1fd06c765d86}, !- Schedule Type Limits Name
  ,                                       !- Interpolate to Timestep
  4,                                      !- Hour 1
  0,                                      !- Minute 1
  0,                                      !- Value Until Time 1
  22,                                     !- Hour 2
  0,                                      !- Minute 2
  1,                                      !- Value Until Time 2
  24,                                     !- Hour 3
  0,                                      !- Minute 3
  0;                                      !- Value Until Time 3

OS:Schedule:Day,
  {e4983ce2-b97e-4607-a41e-4bb92ea8ed3d}, !- Handle
  Schedule Day 2,                         !- Name
  ,                                       !- Schedule Type Limits Name
  ,                                       !- Interpolate to Timestep
  24,                                     !- Hour 1
  0,                                      !- Minute 1
  0;                                      !- Value Until Time 1

OS:Schedule:Day,
  {79970241-2074-4c0d-ad27-f5e435b5d09b}, !- Handle
  0400|2200|Hospital|default|hoo Winter Design Day, !- Name
  {60e1a8e7-e14f-4ca7-aaa8-1fd06c765d86}, !- Schedule Type Limits Name
  ,                                       !- Interpolate to Timestep
  24,                                     !- Hour 1
  0,                                      !- Minute 1
  0;                                      !- Value Until Time 1

OS:Schedule:Day,
  {b0e09fc0-02f1-4d8d-b878-83779f0d8996}, !- Handle
  Schedule Day 3,                         !- Name
  ,                                       !- Schedule Type Limits Name
  ,                                       !- Interpolate to Timestep
  24,                                     !- Hour 1
  0,                                      !- Minute 1
  0;                                      !- Value Until Time 1

OS:Schedule:Day,
  {2366db41-1029-4570-a23a-2fbea21b6447}, !- Handle
  0400|2200|Hospital|default|hoo Summer Design Day, !- Name
  {60e1a8e7-e14f-4ca7-aaa8-1fd06c765d86}, !- Schedule Type Limits Name
  ,                                       !- Interpolate to Timestep
  24,                                     !- Hour 1
  0,                                      !- Minute 1
  1;                                      !- Value Until Time 1

OS:DefaultScheduleSet,
  {93f2ae41-e901-4366-a9f3-3bf65b80395e}, !- Handle
  Building Hours of Operation,            !- Name
  {7b463d1e-4a1c-438b-bbe7-5c0544998d56}, !- Hours of Operation Schedule Name
  ,                                       !- Number of People Schedule Name
  ,                                       !- People Activity Level Schedule Name
  ,                                       !- Lighting Schedule Name
  ,                                       !- Electric Equipment Schedule Name
  ,                                       !- Gas Equipment Schedule Name
  ,                                       !- Hot Water Equipment Schedule Name
  ,                                       !- Infiltration Schedule Name
  ,                                       !- Steam Equipment Schedule Name
  ;                                       !- Other Equipment Schedule Name

OS:ScheduleTypeLimits,
  {60e1a8e7-e14f-4ca7-aaa8-1fd06c765d86}, !- Handle
  OnOff,                                  !- Name
  0,                                      !- Lower Limit Value {BasedOnField A4}
  1,                                      !- Upper Limit Value {BasedOnField A4}
  Discrete,                               !- Numeric Type
  Availability;                           !- Unit Type

OS:Schedule:Ruleset,
  {1866a869-c1f8-4ee6-aac0-ce9f55e98b53}, !- Handle
  0400|2200|Hospital|Corridor|htg_setpoint, !- Name
  {0ced32f8-838c-469b-9e72-c5337e273c89}, !- Schedule Type Limits Name
  {1f2200ae-9f3b-4aa8-ba64-72cd174e31ec}, !- Default Day Schedule Name
  {81478523-705a-42f9-9d1d-3240ea71df89}, !- Summer Design Day Schedule Name
  {6536acbf-de0d-45dd-a344-b51ef50c0c35}; !- Winter Design Day Schedule Name

OS:ScheduleTypeLimits,
  {0ced32f8-838c-469b-9e72-c5337e273c89}, !- Handle
  Thermostat Heating Setpoint Schedule Type Limits, !- Name
  0,                                      !- Lower Limit Value {BasedOnField A4}
  100,                                    !- Upper Limit Value {BasedOnField A4}
  Continuous,                             !- Numeric Type
  Temperature;                            !- Unit Type

OS:Schedule:Day,
  {1f2200ae-9f3b-4aa8-ba64-72cd174e31ec}, !- Handle
  0400|2200|Hospital|Corridor|htg_setpoint |default, !- Name
  {0ced32f8-838c-469b-9e72-c5337e273c89}, !- Schedule Type Limits Name
  ,                                       !- Interpolate to Timestep
  24,                                     !- Hour 1
  0,                                      !- Minute 1
  21.1;                                   !- Value Until Time 1

OS:Schedule:Day,
  {81478523-705a-42f9-9d1d-3240ea71df89}, !- Handle
  0400|2200|Hospital|Corridor|htg_setpoint Summer Design Day, !- Name
  {0ced32f8-838c-469b-9e72-c5337e273c89}, !- Schedule Type Limits Name
  ,                                       !- Interpolate to Timestep
  24,                                     !- Hour 1
  0,                                      !- Minute 1
  21.1;                                   !- Value Until Time 1

OS:Schedule:Day,
  {6536acbf-de0d-45dd-a344-b51ef50c0c35}, !- Handle
  0400|2200|Hospital|Corridor|htg_setpoint Winter Design Day, !- Name
  {0ced32f8-838c-469b-9e72-c5337e273c89}, !- Schedule Type Limits Name
  ,                                       !- Interpolate to Timestep
  24,                                     !- Hour 1
  0,                                      !- Minute 1
  21.1;                                   !- Value Until Time 1

OS:Schedule:Ruleset,
  {9579393b-ff1b-4e27-834a-d64438666d25}, !- Handle
  0400|2200|Hospital|ICUOpen|clg_setpoint, !- Name
  {61f82989-309a-4953-9222-5fa97c2fd5f8}, !- Schedule Type Limits Name
  {3cf38120-76be-4602-857d-48f4ffa77de7}, !- Default Day Schedule Name
  {64848955-869f-44af-b241-33b3f8d6e723}, !- Summer Design Day Schedule Name
  {cfde8bf0-aeae-41f1-b504-ad484a233f2f}; !- Winter Design Day Schedule Name

OS:ScheduleTypeLimits,
  {61f82989-309a-4953-9222-5fa97c2fd5f8}, !- Handle
  Thermostat Cooling Setpoint Schedule Type Limits, !- Name
  0,                                      !- Lower Limit Value {BasedOnField A4}
  100,                                    !- Upper Limit Value {BasedOnField A4}
  Continuous,                             !- Numeric Type
  Temperature;                            !- Unit Type

OS:Schedule:Day,
  {3cf38120-76be-4602-857d-48f4ffa77de7}, !- Handle
  0400|2200|Hospital|ICUOpen|clg_setpoint |default, !- Name
  {61f82989-309a-4953-9222-5fa97c2fd5f8}, !- Schedule Type Limits Name
  ,                                       !- Interpolate to Timestep
  24,                                     !- Hour 1
  0,                                      !- Minute 1
  22.2;                                   !- Value Until Time 1

OS:Schedule:Day,
  {64848955-869f-44af-b241-33b3f8d6e723}, !- Handle
  0400|2200|Hospital|ICUOpen|clg_setpoint Summer Design Day, !- Name
  {61f82989-309a-4953-9222-5fa97c2fd5f8}, !- Schedule Type Limits Name
  ,                                       !- Interpolate to Timestep
  24,                                     !- Hour 1
  0,                                      !- Minute 1
  22.2;                                   !- Value Until Time 1

OS:Schedule:Day,
  {cfde8bf0-aeae-41f1-b504-ad484a233f2f}, !- Handle
  0400|2200|Hospital|ICUOpen|clg_setpoint Winter Design Day, !- Name
  {61f82989-309a-4953-9222-5fa97c2fd5f8}, !- Schedule Type Limits Name
  ,                                       !- Interpolate to Timestep
  24,                                     !- Hour 1
  0,                                      !- Minute 1
  22.2;                                   !- Value Until Time 1

OS:Schedule:Ruleset,
  {a675a8e3-67d1-4104-a541-c59b6adccf36}, !- Handle
  0400|2200|Hospital|OR|htg_setpoint,     !- Name
  {0ced32f8-838c-469b-9e72-c5337e273c89}, !- Schedule Type Limits Name
  {06c580be-f50a-4d95-b8ec-aae97c858378}, !- Default Day Schedule Name
  {6e2e9454-f6f1-4b90-a215-e6c9ea664970}, !- Summer Design Day Schedule Name
  {5dd61296-476d-42eb-9760-955e901d5303}; !- Winter Design Day Schedule Name

OS:Schedule:Day,
  {06c580be-f50a-4d95-b8ec-aae97c858378}, !- Handle
  0400|2200|Hospital|OR|htg_setpoint |default, !- Name
  {0ced32f8-838c-469b-9e72-c5337e273c89}, !- Schedule Type Limits Name
  ,                                       !- Interpolate to Timestep
  24,                                     !- Hour 1
  0,                                      !- Minute 1
  18.3;                                   !- Value Until Time 1

OS:Schedule:Day,
  {6e2e9454-f6f1-4b90-a215-e6c9ea664970}, !- Handle
  0400|2200|Hospital|OR|htg_setpoint Summer Design Day, !- Name
  {0ced32f8-838c-469b-9e72-c5337e273c89}, !- Schedule Type Limits Name
  ,                                       !- Interpolate to Timestep
  24,                                     !- Hour 1
  0,                                      !- Minute 1
  18.3;                                   !- Value Until Time 1

OS:Schedule:Day,
  {5dd61296-476d-42eb-9760-955e901d5303}, !- Handle
  0400|2200|Hospital|OR|htg_setpoint Winter Design Day, !- Name
  {0ced32f8-838c-469b-9e72-c5337e273c89}, !- Schedule Type Limits Name
  ,                                       !- Interpolate to Timestep
  24,                                     !- Hour 1
  0,                                      !- Minute 1
  18.3;                                   !- Value Until Time 1

OS:Schedule:Ruleset,
  {2e8c5402-3d33-48b7-9857-9c8ef301ca0f}, !- Handle
  0400|2200|Hospital|ERTriage|elec_equip, !- Name
  {d64c984b-b8ce-4290-9040-4f9002f7301a}, !- Schedule Type Limits Name
  {a1125b44-690c-428e-aec1-22ad0d12b844}, !- Default Day Schedule Name
  {cb0d54e0-c550-4224-b05e-1fdb8f4be9b5}, !- Summer Design Day Schedule Name
  {f20b40a4-d8f9-4735-acaf-b5f9245a980b}; !- Winter Design Day Schedule Name

OS:ScheduleTypeLimits,
  {d64c984b-b8ce-4290-9040-4f9002f7301a}, !- Handle
  Equipment Schedule Type Limits,         !- Name
  0,                                      !- Lower Limit Value {BasedOnField A4}
  1,                                      !- Upper Limit Value {BasedOnField A4}
  Continuous,                             !- Numeric Type
  Dimensionless;                          !- Unit Type

OS:Schedule:Day,
  {a1125b44-690c-428e-aec1-22ad0d12b844}, !- Handle
  0400|2200|Hospital|ERTriage|elec_equip |default, !- Name
  {d64c984b-b8ce-4290-9040-4f9002f7301a}, !- Schedule Type Limits Name
  ,                                       !- Interpolate to Timestep
  6,                                      !- Hour 1
  0,                                      !- Minute 1
  0.5,                                    !- Value Until Time 1
  18,                                     !- Hour 2
  0,                                      !- Minute 2
  1,                                      !- Value Until Time 2
  20,                                     !- Hour 3
  0,                                      !- Minute 3
  0.8,                                    !- Value Until Time 3
  24,                                     !- Hour 4
  0,                                      !- Minute 4
  0.5;                                    !- Value Until Time 4

OS:Schedule:Day,
  {cb0d54e0-c550-4224-b05e-1fdb8f4be9b5}, !- Handle
  0400|2200|Hospital|ERTriage|elec_equip Summer Design Day, !- Name
  {d64c984b-b8ce-4290-9040-4f9002f7301a}, !- Schedule Type Limits Name
  ,                                       !- Interpolate to Timestep
  24,                                     !- Hour 1
  0,                                      !- Minute 1
  1;                                      !- Value Until Time 1

OS:Schedule:Day,
  {f20b40a4-d8f9-4735-acaf-b5f9245a980b}, !- Handle
  0400|2200|Hospital|ERTriage|elec_equip Winter Design Day, !- Name
  {d64c984b-b8ce-4290-9040-4f9002f7301a}, !- Schedule Type Limits Name
  ,                                       !- Interpolate to Timestep
  24,                                     !- Hour 1
  0,                                      !- Minute 1
  0.5;                                    !- Value Until Time 1

OS:Schedule:Ruleset,
  {d8bbc84f-e255-4fd2-b92d-9b3c66d9f60b}, !- Handle
  0400|2200|Hospital|ERExam|clg_setpoint, !- Name
  {61f82989-309a-4953-9222-5fa97c2fd5f8}, !- Schedule Type Limits Name
  {50497713-4050-4d14-9cd7-ea4fb2b85960}, !- Default Day Schedule Name
  {e5f6e4d6-267f-4a25-8792-4988ef6503d5}, !- Summer Design Day Schedule Name
  {a4651a7a-2176-40c5-958b-115c3ee48600}; !- Winter Design Day Schedule Name

OS:Schedule:Day,
  {50497713-4050-4d14-9cd7-ea4fb2b85960}, !- Handle
  0400|2200|Hospital|ERExam|clg_setpoint |default, !- Name
  {61f82989-309a-4953-9222-5fa97c2fd5f8}, !- Schedule Type Limits Name
  ,                                       !- Interpolate to Timestep
  24,                                     !- Hour 1
  0,                                      !- Minute 1
  22.2;                                   !- Value Until Time 1

OS:Schedule:Day,
  {e5f6e4d6-267f-4a25-8792-4988ef6503d5}, !- Handle
  0400|2200|Hospital|ERExam|clg_setpoint Summer Design Day, !- Name
  {61f82989-309a-4953-9222-5fa97c2fd5f8}, !- Schedule Type Limits Name
  ,                                       !- Interpolate to Timestep
  24,                                     !- Hour 1
  0,                                      !- Minute 1
  22.2;                                   !- Value Until Time 1

OS:Schedule:Day,
  {a4651a7a-2176-40c5-958b-115c3ee48600}, !- Handle
  0400|2200|Hospital|ERExam|clg_setpoint Winter Design Day, !- Name
  {61f82989-309a-4953-9222-5fa97c2fd5f8}, !- Schedule Type Limits Name
  ,                                       !- Interpolate to Timestep
  24,                                     !- Hour 1
  0,                                      !- Minute 1
  22.2;                                   !- Value Until Time 1

OS:Schedule:Ruleset,
  {c9fb9dbe-b3c9-4b75-9384-319a5c63ee93}, !- Handle
  0400|2200|Hospital|default|hvac,        !- Name
  {f6e7b1e3-2933-4aa8-a70e-6b31eba2a68d}, !- Schedule Type Limits Name
  {78c6f1d2-fad6-4dfa-b1f0-aebf4774fc57}, !- Default Day Schedule Name
  {63c15260-9464-4053-9f65-076703b359e8}, !- Summer Design Day Schedule Name
  {684fefc8-8297-4f36-a19a-0ed969080cac}; !- Winter Design Day Schedule Name

OS:ScheduleTypeLimits,
  {f6e7b1e3-2933-4aa8-a70e-6b31eba2a68d}, !- Handle
  HVAC Operation Schedule Type Limits,    !- Name
  0,                                      !- Lower Limit Value {BasedOnField A4}
  1,                                      !- Upper Limit Value {BasedOnField A4}
  Discrete,                               !- Numeric Type
  Availability;                           !- Unit Type

OS:Schedule:Day,
  {78c6f1d2-fad6-4dfa-b1f0-aebf4774fc57}, !- Handle
  0400|2200|Hospital|default|hvac |default, !- Name
  {f6e7b1e3-2933-4aa8-a70e-6b31eba2a68d}, !- Schedule Type Limits Name
  ,                                       !- Interpolate to Timestep
  24,                                     !- Hour 1
  0,                                      !- Minute 1
  1;                                      !- Value Until Time 1

OS:Schedule:Day,
  {63c15260-9464-4053-9f65-076703b359e8}, !- Handle
  0400|2200|Hospital|default|hvac Summer Design Day, !- Name
  {f6e7b1e3-2933-4aa8-a70e-6b31eba2a68d}, !- Schedule Type Limits Name
  ,                                       !- Interpolate to Timestep
  24,                                     !- Hour 1
  0,                                      !- Minute 1
  1;                                      !- Value Until Time 1

OS:Schedule:Day,
  {684fefc8-8297-4f36-a19a-0ed969080cac}, !- Handle
  0400|2200|Hospital|default|hvac Winter Design Day, !- Name
  {f6e7b1e3-2933-4aa8-a70e-6b31eba2a68d}, !- Schedule Type Limits Name
  ,                                       !- Interpolate to Timestep
  24,                                     !- Hour 1
  0,                                      !- Minute 1
  1;                                      !- Value Until Time 1

OS:Schedule:Ruleset,
  {c56a0c3d-91f3-4bc0-9ae0-0f912e480388}, !- Handle
  0400|2200|Hospital|default|lighting,    !- Name
  {1531e1c7-47b8-4338-bfcb-c41758f39842}, !- Schedule Type Limits Name
  {ab492c83-2fc3-4b10-8e3b-0eb7eff08587}, !- Default Day Schedule Name
  {e22c3eb8-8371-4623-bc7c-759a3763c26f}, !- Summer Design Day Schedule Name
  {9de45ee6-aee3-42cc-aa6c-be2049a7c25a}; !- Winter Design Day Schedule Name

OS:ScheduleTypeLimits,