
OS:Version,
  {662c5d60-00a8-4d9e-b3c4-601c907d3779}, !- Handle
  1.5.5;                                  !- Version Identifier

OS:ClimateZones,
  {135edfab-17e7-40db-a436-27d385a8cd6d}, !- Handle
  ,                                       !- Active Institution
  ,                                       !- Active Year
  ASHRAE,                                 !- Climate Zone Institution Name 1
  ANSI/ASHRAE Standard 169,               !- Climate Zone Document Name 1
  2006,                                   !- Climate Zone Document Year 1
  ,                                       !- Climate Zone Value 1
  CEC,                                    !- Climate Zone Institution Name 2
  California Climate Zone Descriptions,   !- Climate Zone Document Name 2
  1995,                                   !- Climate Zone Document Year 2
  ;                                       !- Climate Zone Value 2

OS:YearDescription,
  {513d8dda-86cb-442a-b01c-1f7f0e0ac70e}; !- Handle

OS:RadianceParameters,
  {270a96f1-3c86-4b75-a667-cdf22790e2c8}, !- Handle
  1,                                      !- Accumulated Rays per Record
  0,                                      !- Direct Threshold
  1,                                      !- Direct Certainty
  1,                                      !- Direct Jitter
  1,                                      !- Direct Pretest
  6,                                      !- Ambient Bounces VMX
  2,                                      !- Ambient Bounces DMX
  4050,                                   !- Ambient Divisions VMX
  512,                                    !- Ambient Divisions DMX
  256,                                    !- Ambient Supersamples
  0.001,                                  !- Limit Weight VMX
  0.001,                                  !- Limit Weight DMX
  500,                                    !- Klems Sampling Density
  146;                                    !- Sky Discretization Resolution

OS:SimulationControl,
  {2c487a4c-bac9-4ac5-b669-1e49d9da7c2b}, !- Handle
  ,                                       !- Do Zone Sizing Calculation
  ,                                       !- Do System Sizing Calculation
  ,                                       !- Do Plant Sizing Calculation
  No,                                     !- Run Simulation for Sizing Periods
  ,                                       !- Run Simulation for Weather File Run Periods
  0.04,                                   !- Loads Convergence Tolerance Value
  ,                                       !- Temperature Convergence Tolerance Value {deltaC}
  ,                                       !- Solar Distribution
  ,                                       !- Maximum Number of Warmup Days
  2;                                      !- Minimum Number of Warmup Days

OS:Sizing:Parameters,
  {dde5af6f-7923-4600-a28a-7556673a0266}, !- Handle
  1.25,                                   !- Heating Sizing Factor
  1.15;                                   !- Cooling Sizing Factor

OS:ProgramControl,
  {05027a99-f2b3-4aeb-afc6-1425fbb4371d}; !- Handle

OS:Timestep,
  {4ebc9f1e-4707-402e-9844-67eb1ffbd522}, !- Handle
  2;                                      !- Number of Timesteps per Hour

OS:OutputControl:ReportingTolerances,
  {65797aa2-06a9-45fe-b69d-bc6e060399d3}; !- Handle

OS:ConvergenceLimits,
  {9fc11aba-8822-4f3d-970c-46391ba4040d}; !- Handle

OS:ShadowCalculation,
  {ca758bea-4416-4626-9bba-3d8795c79bd6}, !- Handle
  7,                                      !- Calculation Frequency
  15000;                                  !- Maximum Figures in Shadow Overlap Calculations

OS:SurfaceConvectionAlgorithm:Inside,
  {aaabfc36-718a-4ab0-b622-f186ebb45230}, !- Handle
  TARP;                                   !- Algorithm

OS:SurfaceConvectionAlgorithm:Outside,
  {9a0a9f6f-4bbd-4b12-a121-9492a1fcd7d6}, !- Handle
  DOE-2;                                  !- Algorithm

OS:HeatBalanceAlgorithm,
  {9d93e563-e1e0-46d7-9e39-d1c8aceb7212}, !- Handle
  ConductionTransferFunction,             !- Algorithm
  200;                                    !- Surface Temperature Upper Limit {F}

OS:ZoneAirHeatBalanceAlgorithm,
  {8520d93e-310f-4696-9bcd-36228bfdd743}, !- Handle
  AnalyticalSolution;                     !- Algorithm

OS:ZoneAirContaminantBalance,
  {eb5fc3ae-fb22-4160-8fcb-3e3b22b000d3}; !- Handle

OS:ZoneCapacitanceMultiplier:ResearchSpecial,
  {4020ce4f-5a7a-4849-8028-8305d7b751b1}, !- Handle
  ,                                       !- Temperature Capacity Multiplier
  ,                                       !- Humidity Capacity Multiplier
  ;                                       !- Carbon Dioxide Capacity Multiplier

OS:RunPeriod,
  {28df894d-6af9-4fb8-8f56-df1753344aa3}, !- Handle
  Run Period 1,                           !- Name
  1,                                      !- Begin Month
  1,                                      !- Begin Day of Month
  12,                                     !- End Month
  31,                                     !- End Day of Month
  ,                                       !- Use Weather File Holidays and Special Days
  ,                                       !- Use Weather File Daylight Saving Period
  ,                                       !- Apply Weekend Holiday Rule
  ,                                       !- Use Weather File Rain Indicators
  ,                                       !- Use Weather File Snow Indicators
  ;                                       !- Number of Times Runperiod to be Repeated

OS:Building,
  {bf305633-c5a1-4881-9edf-ca5e1a8e1274}, !- Handle
  Building 1,                             !- Name
  ,                                       !- Building Sector Type
  ,                                       !- North Axis {deg}
  ,                                       !- Nominal Floor to Floor Height {m}
  ,                                       !- Space Type Name
  ,                                       !- Default Construction Set Name
  {51f34ebd-fddb-4107-b622-d6a6f59eaca8}, !- Default Schedule Set Name
  ,                                       !- Standards Number of Stories
  ,                                       !- Standards Number of Above Ground Stories
  Hospital;                               !- Standards Building Type

OS:LifeCycleCost:Parameters,
  {231cf8a0-f0e7-4251-a99f-11f0d464e661}, !- Handle
  FEMP,                                   !- Analysis Type
  ,                                       !- Discounting Convention
  ,                                       !- Inflation Approach
  ,                                       !- Real Discount Rate
  ,                                       !- Nominal Discount Rate
  ,                                       !- Inflation
  ,                                       !- Base Date Month
  ,                                       !- Base Date Year
  ,                                       !- Service Date Month
  ,                                       !- Service Date Year
  ,                                       !- Length of Study Period in Years
  ,                                       !- Tax Rate
  ,                                       !- Depreciation Method
  Yes;                                    !- Use NIST Fuel Escalation Rates

OS:Facility,
  {3ba8e45b-b833-44eb-a723-ea6c3946dc96}; !- Handle

OS:SpaceType,
  {178c846e-a12d-4b6d-a61c-186da7e87cc9}, !- Handle
  Hospital|BlendPat|DOE Ref Pre-1980|ASHRAE 169-2006-5A, !- Name
  {29e0f0e7-21ad-4c40-84b7-8951070300f2}, !- Default Construction Set Name
  ,                                       !- Default Schedule Set Name
  {ec8aa76e-8d47-4d72-b661-f36cdae77e15}, !- Group Rendering Name
  {b7cbcc7a-47be-4c45-87bf-9bb1b83e358b}, !- Design Specification Outdoor Air Object Name
  Hospital,                               !- Standards Building Type
  BlendPat;                               !- Standards Space Type

OS:Rendering:Color,
  {ec8aa76e-8d47-4d72-b661-f36cdae77e15}, !- Handle
  Rendering Color 1,                      !- Name
  31,                                     !- Rendering Red Value
  162,                                    !- Rendering Green Value
  169;                                    !- Rendering Blue Value

OS:SpaceType,
  {92f1abfc-b0f0-4e4a-b412-d39e14978063}, !- Handle
  Hospital|BlendCirc|DOE Ref Pre-1980|ASHRAE 169-2006-5A, !- Name
  {29e0f0e7-21ad-4c40-84b7-8951070300f2}, !- Default Construction Set Name
  ,                                       !- Default Schedule Set Name
  {1f3faf9f-2225-454e-a2e5-3d92ac023c33}, !- Group Rendering Name
  {2c0bf59e-c5cb-4340-9f45-d52cc1d495cb}, !- Design Specification Outdoor Air Object Name
  Hospital,                               !- Standards Building Type
  BlendCirc;                              !- Standards Space Type

OS:Rendering:Color,
  {1f3faf9f-2225-454e-a2e5-3d92ac023c33}, !- Handle
  Rendering Color 2,                      !- Name
  169,                                    !- Rendering Red Value
  31,                                     !- Rendering Green Value
  31;                                     !- Rendering Blue Value

OS:SpaceType,
  {a73c8e2d-b949-47ea-974f-dcc5026f8b28}, !- Handle
  Hospital|Kitchen|DOE Ref Pre-1980|ASHRAE 169-2006-5A, !- Name
  {29e0f0e7-21ad-4c40-84b7-8951070300f2}, !- Default Construction Set Name
  {2eafa08a-ee33-4301-9f63-39c65f015e31}, !- Default Schedule Set Name
  {1e6bc49d-dd2f-4dab-bbac-cfcb60b9a24b}, !- Group Rendering Name
  {817a2e9e-0db4-4f87-a466-f20e954323ca}, !- Design Specification Outdoor Air Object Name
  Hospital,                               !- Standards Building Type
  Kitchen;                                !- Standards Space Type

OS:Rendering:Color,
  {1e6bc49d-dd2f-4dab-bbac-cfcb60b9a24b}, !- Handle
  Rendering Color 3,                      !- Name
  78,                                     !- Rendering Red Value
  222,                                    !- Rendering Green Value
  133;                                    !- Rendering Blue Value

OS:SpaceType,
  {46ca370a-3f64-452d-bd38-67e118416d8e}, !- Handle
  Hospital|Dining|DOE Ref Pre-1980|ASHRAE 169-2006-5A, !- Name
  {29e0f0e7-21ad-4c40-84b7-8951070300f2}, !- Default Construction Set Name
  {d4d98bd1-26d6-4564-8bb2-6c1654580807}, !- Default Schedule Set Name
  {c10ac6f4-22d5-4f87-9403-e03050f5603e}, !- Group Rendering Name
  {d170680e-186f-4df6-8a0e-97796b32c4e6}, !- Design Specification Outdoor Air Object Name
  Hospital,                               !- Standards Building Type
  Dining;                                 !- Standards Space Type

OS:Rendering:Color,
  {c10ac6f4-22d5-4f87-9403-e03050f5603e}, !- Handle
  Rendering Color 4,                      !- Name
  31,                                     !- Rendering Red Value
  169,                                    !- Rendering Green Value
  34;                                     !- Rendering Blue Value

OS:SpaceType,
  {61301774-0314-4c16-903f-1306e1dc6913}, !- Handle
  Hospital|Lab|DOE Ref Pre-1980|ASHRAE 169-2006-5A, !- Name
  {29e0f0e7-21ad-4c40-84b7-8951070300f2}, !- Default Construction Set Name
  {53433fec-1f24-407e-a8fd-ab338dc193c0}, !- Default Schedule Set Name
  {268436c9-82ca-421e-8e15-fe0daa776ec5}, !- Group Rendering Name
  {f3040257-10e6-49fb-b4fb-1a1166d4f2b8}, !- Design Specification Outdoor Air Object Name
  Hospital,                               !- Standards Building Type
  Lab;                                    !- Standards Space Type

OS:Rendering:Color,
  {268436c9-82ca-421e-8e15-fe0daa776ec5}, !- Handle
  Rendering Color 5,                      !- Name
  204,                                    !- Rendering Red Value
  120,                                    !- Rendering Green Value
  230;                                    !- Rendering Blue Value

OS:SpaceType,
  {70c851bf-5507-4737-9603-846800ca4f22}, !- Handle
  Hospital|Radiology|DOE Ref Pre-1980|ASHRAE 169-2006-5A, !- Name
  {29e0f0e7-21ad-4c40-84b7-8951070300f2}, !- Default Construction Set Name
  {76164836-0cab-40ce-81f3-dfd50c9c1a7f}, !- Default Schedule Set Name
  {eeadc3af-7590-48e1-8941-368ddfa05bd1}, !- Group Rendering Name
  {f27e3eea-90be-4cec-b675-629ee0047858}, !- Design Specification Outdoor Air Object Name
  Hospital,                               !- Standards Building Type
  Radiology;                              !- Standards Space Type

OS:Rendering:Color,
  {eeadc3af-7590-48e1-8941-368ddfa05bd1}, !- Handle
  Rendering Color 6,                      !- Name
  136,                                    !- Rendering Red Value
  78,                                     !- Rendering Green Value
  222;                                    !- Rendering Blue Value

OS:Schedule:Ruleset,
  {df6d3291-aba1-49cc-b1a5-0dbf0caac989}, !- Handle
  0400|2200|Hospital|default|hoo,         !- Name
  {08272584-2c3d-4c9d-93f2-9c02f884214f}, !- Schedule Type Limits Name
  {f1025c0a-0fe2-4373-9296-ffa3c091e4bb}, !- Default Day Schedule Name
  {adff8b19-013f-49b7-860d-b73c41686a33}, !- Summer Design Day Schedule Name
  {2d33b71d-4f0d-4ca8-b046-b7e4a387d4b4}; !- Winter Design Day Schedule Name

OS:Schedule:Day,
  {f1025c0a-0fe2-4373-9296-ffa3c091e4bb}, !- Handle
  0400|2200|Hospital|default|hoo Schedule Week Day, !- Name
  {08272584-2c3d-4c9d-93f2-9c02f884214f}, !- Schedule Type Limits Name
  ,                                       !- Interpolate to Timestep
  4,                                      !- Hour 1
  0,                                      !- Minute 1
  0,                                      !- Value Until Time 1
  22,                                     !- Hour 2
  0,                                      !- Minute 2
  1,                                      !- Value Until Time 2
  24,                                     !- Hour 3
  0,                                      !- Minute 3
  0;                                      !- Value Until Time 3

OS:Schedule:Day,
  {3b2a7760-d98a-4d8a-9ea8-5b0ee834edc9}, !- Handle
  Schedule Day 2,                         !- Name
  ,                                       !- Schedule Type Limits Name
  ,                                       !- Interpolate to Timestep
  24,                                     !- Hour 1
  0,                                      !- Minute 1
  0;                                      !- Value Until Time 1

OS:Schedule:Day,
  {2d33b71d-4f0d-4ca8-b046-b7e4a387d4b4}, !- Handle
  0400|2200|Hospital|default|hoo Winter Design Day, !- Name
  {08272584-2c3d-4c9d-93f2-9c02f884214f}, !- Schedule Type Limits Name
  ,                                       !- Interpolate to Timestep
  24,                                     !- Hour 1
  0,                                      !- Minute 1
  0;                                      !- Value Until Time 1

OS:Schedule:Day,
  {8ce69842-b1c4-40fa-b377-db6c50c6f1e2}, !- Handle
  Schedule Day 3,                         !- Name
  ,                                       !- Schedule Type Limits Name
  ,                                       !- Interpolate to Timestep
  24,                                     !- Hour 1
  0,                                      !- Minute 1
  0;                                      !- Value Until Time 1

OS:Schedule:Day,
  {adff8b19-013f-49b7-860d-b73c41686a33}, !- Handle
  0400|2200|Hospital|default|hoo Summer Design Day, !- Name
  {08272584-2c3d-4c9d-93f2-9c02f884214f}, !- Schedule Type Limits Name
  ,                                       !- Interpolate to Timestep
  24,                                     !- Hour 1
  0,                                      !- Minute 1
  1;                                      !- Value Until Time 1

OS:DefaultScheduleSet,
  {51f34ebd-fddb-4107-b622-d6a6f59eaca8}, !- Handle
  Building Hours of Operation,            !- Name
  {df6d3291-aba1-49cc-b1a5-0dbf0caac989}, !- Hours of Operation Schedule Name
  ,                                       !- Number of People Schedule Name
  ,                                       !- People Activity Level Schedule Name
  ,                                       !- Lighting Schedule Name
  ,                                       !- Electric Equipment Schedule Name
  ,                                       !- Gas Equipment Schedule Name
  ,                                       !- Hot Water Equipment Schedule Name
  ,                                       !- Infiltration Schedule Name
  ,                                       !- Steam Equipment Schedule Name
  ;                                       !- Other Equipment Schedule Name

OS:ScheduleTypeLimits,
  {08272584-2c3d-4c9d-93f2-9c02f884214f}, !- Handle
  OnOff,                                  !- Name
  0,                                      !- Lower Limit Value {BasedOnField A4}
  1,                                      !- Upper Limit Value {BasedOnField A4}
  Discrete,                               !- Numeric Type
  Availability;                           !- Unit Type

OS:Schedule:Ruleset,
  {62ec284b-d1b3-4575-8ada-d3b647925c34}, !- Handle
  0400|2200|Hospital|default|ext_lighting, !- Name
  {8f0b987c-fe7c-40cc-84b9-4d20a92ac217}, !- Schedule Type Limits Name
  {605a67cb-c652-46d3-9aac-915dd3244c00}, !- Default Day Schedule Name
  {6512f58b-d8bd-4be3-8469-efa86fbb6019}, !- Summer Design Day Schedule Name
  {74dd4e97-00a8-4f50-9601-1f35fbb26a8a}; !- Winter Design Day Schedule Name

OS:ScheduleTypeLimits,
  {8f0b987c-fe7c-40cc-84b9-4d20a92ac217}, !- Handle
  Lights Schedule Type Limits,            !- Name
  0,                                      !- Lower Limit Value {BasedOnField A4}
  1,                                      !- Upper Limit Value {BasedOnField A4}
  Continuous,                             !- Numeric Type
  Dimensionless;                          !- Unit Type

OS:Schedule:Day,
  {605a67cb-c652-46d3-9aac-915dd3244c00}, !- Handle
  0400|2200|Hospital|default|ext_lighting |default, !- Name
  {8f0b987c-fe7c-40cc-84b9-4d20a92ac217}, !- Schedule Type Limits Name
  ,                                       !- Interpolate to Timestep
  24,                                     !- Hour 1
  0,                                      !- Minute 1
  1;                                      !- Value Until Time 1

OS:Schedule:Day,
  {6512f58b-d8bd-4be3-8469-efa86fbb6019}, !- Handle
  0400|2200|Hospital|default|ext_lighting Summer Design Day, !- Name
  {8f0b987c-fe7c-40cc-84b9-4d20a92ac217}, !- Schedule Type Limits Name
  ,                                       !- Interpolate to Timestep
  24,                                     !- Hour 1
  0,                                      !- Minute 1
  1;                                      !- Value Until Time 1

OS:Schedule:Day,
  {74dd4e97-00a8-4f50-9601-1f35fbb26a8a}, !- Handle
  0400|2200|Hospital|default|ext_lighting Winter Design Day, !- Name
  {8f0b987c-fe7c-40cc-84b9-4d20a92ac217}, !- Schedule Type Limits Name
  ,                                       !- Interpolate to Timestep
  24,                                     !- Hour 1
  0,                                      !- Minute 1
  1;                                      !- Value Until Time 1

OS:Schedule:Ruleset,
  {05bcca16-513a-44b9-9055-4f67d3b76c81}, !- Handle
  0400|2200|Hospital|Hospital Critical HtgSetp|htg_setpoint, !- Name
  {92bc1e49-0e4a-418d-a386-0b383e1b4182}, !- Schedule Type Limits Name
  {e8d913a4-270f-4029-aa65-97cfc770606f}, !- Default Day Schedule Name
  {95eed999-317d-449f-a1cb-25a90efbcd17}, !- Summer Design Day Schedule Name
  {b17d6bcf-f1dd-4ef3-a8b1-cebf92505fb4}; !- Winter Design Day Schedule Name

OS:ScheduleTypeLimits,
  {92bc1e49-0e4a-418d-a386-0b383e1b4182}, !- Handle
  Thermostat Heating Setpoint Schedule Type Limits, !- Name
  0,                                      !- Lower Limit Value {BasedOnField A4}
  100,                                    !- Upper Limit Value {BasedOnField A4}
  Continuous,                             !- Numeric Type
  Temperature;                            !- Unit Type

OS:Schedule:Day,
  {e8d913a4-270f-4029-aa65-97cfc770606f}, !- Handle
  0400|2200|Hospital|Hospital Critical HtgSetp|htg_setpoint |default, !- Name
  {92bc1e49-0e4a-418d-a386-0b383e1b4182}, !- Schedule Type Limits Name
  ,                                       !- Interpolate to Timestep
  24,                                     !- Hour 1
  0,                                      !- Minute 1
  21.1;                                   !- Value Until Time 1

OS:Schedule:Day,
  {95eed999-317d-449f-a1cb-25a90efbcd17}, !- Handle
  0400|2200|Hospital|Hospital Critical HtgSetp|htg_setpoint Summer Design Day, !- Name
  {92bc1e49-0e4a-418d-a386-0b383e1b4182}, !- Schedule Type Limits Name
  ,                                       !- Interpolate to Timestep
  24,                                     !- Hour 1
  0,                                      !- Minute 1
  21.1;                                   !- Value Until Time 1

OS:Schedule:Day,
  {b17d6bcf-f1dd-4ef3-a8b1-cebf92505fb4}, !- Handle
  0400|2200|Hospital|Hospital Critical HtgSetp|htg_setpoint Winter Design Day, !- Name
  {92bc1e49-0e4a-418d-a386-0b383e1b4182}, !- Schedule Type Limits Name
  ,                                       !- Interpolate to Timestep
  24,                                     !- Hour 1
  0,                                      !- Minute 1
  21.1;                                   !- Value Until Time 1

OS:Schedule:Ruleset,
  {96f93b89-b7cd-4521-98d2-18641e88139c}, !- Handle
  0400|2200|Hospital|ER_Exam|clg_setpoint, !- Name
  {915addec-1ba0-4267-9f4e-24feb381e5e2}, !- Schedule Type Limits Name
  {207b6d85-4b72-4440-92ab-c28eab67de84}, !- Default Day Schedule Name
  {8f6df693-a884-41e2-9702-79895fac5395}, !- Summer Design Day Schedule Name
  {3f5ed4b5-2edd-4873-8444-f4663465a8d8}; !- Winter Design Day Schedule Name

OS:ScheduleTypeLimits,
  {915addec-1ba0-4267-9f4e-24feb381e5e2}, !- Handle
  Thermostat Cooling Setpoint Schedule Type Limits, !- Name
  0,                                      !- Lower Limit Value {BasedOnField A4}
  100,                                    !- Upper Limit Value {BasedOnField A4}
  Continuous,                             !- Numeric Type
  Temperature;                            !- Unit Type

OS:Schedule:Day,
  {207b6d85-4b72-4440-92ab-c28eab67de84}, !- Handle
  0400|2200|Hospital|ER_Exam|clg_setpoint |default, !- Name
  {915addec-1ba0-4267-9f4e-24feb381e5e2}, !- Schedule Type Limits Name
  ,                                       !- Interpolate to Timestep
  24,                                     !- Hour 1
  0,                                      !- Minute 1
  22.2;                                   !- Value Until Time 1

OS:Schedule:Day,
  {8f6df693-a884-41e2-9702-79895fac5395}, !- Handle
  0400|2200|Hospital|ER_Exam|clg_setpoint Summer Design Day, !- Name
  {915addec-1ba0-4267-9f4e-24feb381e5e2}, !- Schedule Type Limits Name
  ,                                       !- Interpolate to Timestep
  24,                                     !- Hour 1
  0,                                      !- Minute 1
  22.2;                                   !- Value Until Time 1

OS:Schedule:Day,
  {3f5ed4b5-2edd-4873-8444-f4663465a8d8}, !- Handle
  0400|2200|Hospital|ER_Exam|clg_setpoint Winter Design Day, !- Name
  {915addec-1ba0-4267-9f4e-24feb381e5e2}, !- Schedule Type Limits Name
  ,                                       !- Interpolate to Timestep
  24,                                     !- Hour 1
  0,                                      !- Minute 1
  22.2;                                   !- Value Until Time 1

OS:Schedule:Ruleset,
  {7b46b33e-82f0-45be-9196-01456a9dae72}, !- Handle
  0400|2200|Hospital|ICU_PatRm|clg_setpoint, !- Name
  {915addec-1ba0-4267-9f4e-24feb381e5e2}, !- Schedule Type Limits Name
  {46a798be-dc80-4a4c-bd42-2549e516cd88}, !- Default Day Schedule Name
  {d9e30287-58f2-4043-95a2-88b93a27454e}, !- Summer Design Day Schedule Name
  {650f6a93-4e60-4691-9ddc-59487e7ed6fa}; !- Winter Design Day Schedule Name

OS:Schedule:Day,
  {46a798be-dc80-4a4c-bd42-2549e516cd88}, !- Handle
  0400|2200|Hospital|ICU_PatRm|clg_setpoint |default, !- Name
  {915addec-1ba0-4267-9f4e-24feb381e5e2}, !- Schedule Type Limits Name
  ,                                       !- Interpolate to Timestep
  24,                                     !- Hour 1
  0,                                      !- Minute 1
  22.2;                                   !- Value Until Time 1

OS:Schedule:Day,
  {d9e30287-58f2-4043-95a2-88b93a27454e}, !- Handle
  0400|2200|Hospital|ICU_PatRm|clg_setpoint Summer Design Day, !- Name
  {915addec-1ba0-4267-9f4e-24feb381e5e2}, !- Schedule Type Limits Name
  ,                                       !- Interpolate to Timestep
  24,                                     !- Hour 1
  0,                                      !- Minute 1
  22.2;                                   !- Value Until Time 1

OS:Schedule:Day,
  {650f6a93-4e60-4691-9ddc-59487e7ed6fa}, !- Handle
  0400|2200|Hospital|ICU_PatRm|clg_setpoint Winter Design Day, !- Name
  {915addec-1ba0-4267-9f4e-24feb381e5e2}, !- Schedule Type Limits Name
  ,                                       !- Interpolate to Timestep
  24,                                     !- Hour 1
  0,                                      !- Minute 1
  22.2;                                   !- Value Until Time 1

OS:Schedule:Ruleset,
  {e2c3f993-ebd5-4c36-87c9-4436512c19b3}, !- Handle
  0400|2200|Hospital|Hospital Critical Equip|elec_equip, !- Name
  {e04ff80d-c2b6-4b9c-96ff-04722e1313d9}, !- Schedule Type Limits Name
  {5d685f51-eef4-4762-91c4-dfb7e5eef7d2}, !- Default Day Schedule Name
  {c1c85949-8348-4836-9278-83be4b0faf5d}, !- Summer Design Day Schedule Name
  {aa4427bb-d17f-4a2e-ac6d-deb495d8be29}; !- Winter Design Day Schedule Name

OS:ScheduleTypeLimits,
  {e04ff80d-c2b6-4b9c-96ff-04722e1313d9}, !- Handle
  Equipment Schedule Type Limits,         !- Name
  0,                                      !- Lower Limit Value {BasedOnField A4}
  1,                                      !- Upper Limit Value {BasedOnField A4}
  Continuous,                             !- Numeric Type
  Dimensionless;                          !- Unit Type

OS:Schedule:Day,
  {5d685f51-eef4-4762-91c4-dfb7e5eef7d2}, !- Handle
  0400|2200|Hospital|Hospital Critical Equip|elec_equip |default, !- Name
  {e04ff80d-c2b6-4b9c-96ff-04722e1313d9}, !- Schedule Type Limits Name
  ,                                       !- Interpolate to Timestep
  6,                                      !- Hour 1
  0,                                      !- Minute 1
  0.5,                                    !- Value Until Time 1
  18,                                     !- Hour 2
  0,                                      !- Minute 2
  1,                                      !- Value Until Time 2
  20,                                     !- Hour 3
  0,                                      !- Minute 3
  0.8,                                    !- Value Until Time 3
  24,                                     !- Hour 4
  0,                                      !- Minute 4
  0.5;                                    !- Value Until Time 4

OS:Schedule:Day,
  {c1c85949-8348-4836-9278-83be4b0faf5d}, !- Handle
  0400|2200|Hospital|Hospital Critical Equip|elec_equip Summer Design Day, !- Name
  {e04ff80d-c2b6-4b9c-96ff-04722e1313d9}, !- Schedule Type Limits Name
  ,                                       !- Interpolate to Timestep
  24,                                     !- Hour 1
  0,                                      !- Minute 1
  1;                                      !- Value Until Time 1

OS:Schedule:Day,
  {aa4427bb-d17f-4a2e-ac6d-deb495d8be29}, !- Handle
  0400|2200|Hospital|Hospital Critical Equip|elec_equip Winter Design Day, !- Name
  {e04ff80d-c2b6-4b9c-96ff-04722e1313d9}, !- Schedule Type Limits Name
  ,                                       !- Interpolate to Timestep
  24,                                     !- Hour 1
  0,                                      !- Minute 1
  0.5;                                    !- Value Until Time 1

OS:Schedule:Ruleset,
  {aa8717b6-524c-4939-bfad-c64b461876ea}, !- Handle
  0400|2200|Hospital|ICU_Open|elec_equip, !- Name
  {e04ff80d-c2b6-4b9c-96ff-04722e1313d9}, !- Schedule Type Limits Name
  {9588dcba-53f1-4250-85b6-bcda1e8a003b}, !- Default Day Schedule Name
  {3aea7a65-a610-4a91-9c5f-0fb5a9a661ce}, !- Summer Design Day Schedule Name
  {b87ba802-5b6f-41f0-bd41-153f1e62ee19}; !- Winter Design Day Schedule Name

OS:Schedule:Day,
  {9588dcba-53f1-4250-85b6-bcda1e8a003b}, !- Handle
  0400|2200|Hospital|ICU_Open|elec_equip |default, !- Name
  {e04ff80d-c2b6-4b9c-96ff-04722e1313d9}, !- Schedule Type Limits Name
  ,                                       !- Interpolate to Timestep
  6,                                      !- Hour 1
  0,                                      !- Minute 1
  0.5,                                    !- Value Until Time 1
  18,                                     !- Hour 2
  0,                                      !- Minute 2
  1,                                      !- Value Until Time 2
  20,                                     !- Hour 3
  0,                                      !- Minute 3
  0.8,                                    !- Value Until Time 3
  24,                                     !- Hour 4
  0,                                      !- Minute 4
  0.5;                                    !- Value Until Time 4

OS:Schedule:Day,
  {3aea7a65-a610-4a91-9c5f-0fb5a9a661ce}, !- Handle
  0400|2200|Hospital|ICU_Open|elec_equip Summer Design Day, !- Name
  {e04ff80d-c2b6-4b9c-96ff-04722e1313d9}, !- Schedule Type Limits Name
  ,                                       !- Interpolate to Timestep
  24,                                     !- Hour 1
  0,                                      !- Minute 1
  1;                                      !- Value Until Time 1

OS:Schedule:Day,
  {b87ba802-5b6f-41f0-bd41-153f1e62ee19}, !- Handle
  0400|2200|Hospital|ICU_Open|elec_equip Winter Design Day, !- Name
  {e04ff80d-c2b6-4b9c-96ff-04722e1313d9}, !- Schedule Type Limits Name