
OS:Version,
  {29442560-678c-482d-bd6d-02a2a210bd5c}, !- Handle
  1.5.5;                                  !- Version Identifier

OS:ClimateZones,
  {135edfab-17e7-40db-a436-27d385a8cd6d}, !- Handle
  ,                                       !- Active Institution
  ,                                       !- Active Year
  ASHRAE,                                 !- Climate Zone Institution Name 1
  ANSI/ASHRAE Standard 169,               !- Climate Zone Document Name 1
  2006,                                   !- Climate Zone Document Year 1
  ,                                       !- Climate Zone Value 1
  CEC,                                    !- Climate Zone Institution Name 2
  California Climate Zone Descriptions,   !- Climate Zone Document Name 2
  1995,                                   !- Climate Zone Document Year 2
  ;                                       !- Climate Zone Value 2

OS:YearDescription,
  {513d8dda-86cb-442a-b01c-1f7f0e0ac70e}; !- Handle

OS:RadianceParameters,
  {270a96f1-3c86-4b75-a667-cdf22790e2c8}, !- Handle
  1,                                      !- Accumulated Rays per Record
  0,                                      !- Direct Threshold
  1,                                      !- Direct Certainty
  1,                                      !- Direct Jitter
  1,                                      !- Direct Pretest
  6,                                      !- Ambient Bounces VMX
  2,                                      !- Ambient Bounces DMX
  4050,                                   !- Ambient Divisions VMX
  512,                                    !- Ambient Divisions DMX
  256,                                    !- Ambient Supersamples
  0.001,                                  !- Limit Weight VMX
  0.001,                                  !- Limit Weight DMX
  500,                                    !- Klems Sampling Density
  146;                                    !- Sky Discretization Resolution

OS:SimulationControl,
  {2c487a4c-bac9-4ac5-b669-1e49d9da7c2b}, !- Handle
  ,                                       !- Do Zone Sizing Calculation
  ,                                       !- Do System Sizing Calculation
  ,                                       !- Do Plant Sizing Calculation
  No,                                     !- Run Simulation for Sizing Periods
  ,                                       !- Run Simulation for Weather File Run Periods
  0.04,                                   !- Loads Convergence Tolerance Value
  ,                                       !- Temperature Convergence Tolerance Value {deltaC}
  ,                                       !- Solar Distribution
  ,                                       !- Maximum Number of Warmup Days
  2;                                      !- Minimum Number of Warmup Days

OS:Sizing:Parameters,
  {dde5af6f-7923-4600-a28a-7556673a0266}, !- Handle
  1.25,                                   !- Heating Sizing Factor
  1.15;                                   !- Cooling Sizing Factor

OS:ProgramControl,
  {05027a99-f2b3-4aeb-afc6-1425fbb4371d}; !- Handle

OS:Timestep,
  {4ebc9f1e-4707-402e-9844-67eb1ffbd522}, !- Handle
  2;                                      !- Number of Timesteps per Hour

OS:OutputControl:ReportingTolerances,
  {65797aa2-06a9-45fe-b69d-bc6e060399d3}; !- Handle

OS:ConvergenceLimits,
  {9fc11aba-8822-4f3d-970c-46391ba4040d}; !- Handle

OS:ShadowCalculation,
  {ca758bea-4416-4626-9bba-3d8795c79bd6}, !- Handle
  7,                                      !- Calculation Frequency
  15000;                                  !- Maximum Figures in Shadow Overlap Calculations

OS:SurfaceConvectionAlgorithm:Inside,
  {aaabfc36-718a-4ab0-b622-f186ebb45230}, !- Handle
  TARP;                                   !- Algorithm

OS:SurfaceConvectionAlgorithm:Outside,
  {9a0a9f6f-4bbd-4b12-a121-9492a1fcd7d6}, !- Handle
  DOE-2;                                  !- Algorithm

OS:HeatBalanceAlgorithm,
  {9d93e563-e1e0-46d7-9e39-d1c8aceb7212}, !- Handle
  ConductionTransferFunction,             !- Algorithm
  200;                                    !- Surface Temperature Upper Limit {F}

OS:ZoneAirHeatBalanceAlgorithm,
  {8520d93e-310f-4696-9bcd-36228bfdd743}, !- Handle
  AnalyticalSolution;                     !- Algorithm

OS:ZoneAirContaminantBalance,
  {eb5fc3ae-fb22-4160-8fcb-3e3b22b000d3}; !- Handle

OS:ZoneCapacitanceMultiplier:ResearchSpecial,
  {4020ce4f-5a7a-4849-8028-8305d7b751b1}, !- Handle
  ,                                       !- Temperature Capacity Multiplier
  ,                                       !- Humidity Capacity Multiplier
  ;                                       !- Carbon Dioxide Capacity Multiplier

OS:RunPeriod,
  {28df894d-6af9-4fb8-8f56-df1753344aa3}, !- Handle
  Run Period 1,                           !- Name
  1,                                      !- Begin Month
  1,                                      !- Begin Day of Month
  12,                                     !- End Month
  31,                                     !- End Day of Month
  ,                                       !- Use Weather File Holidays and Special Days
  ,                                       !- Use Weather File Daylight Saving Period
  ,                                       !- Apply Weekend Holiday Rule
  ,                                       !- Use Weather File Rain Indicators
  ,                                       !- Use Weather File Snow Indicators
  ;                                       !- Number of Times Runperiod to be Repeated

OS:Building,
  {bf305633-c5a1-4881-9edf-ca5e1a8e1274}, !- Handle
  Building 1,                             !- Name
  ,                                       !- Building Sector Type
  ,                                       !- North Axis {deg}
  ,                                       !- Nominal Floor to Floor Height {m}
  ,                                       !- Space Type Name
  ,                                       !- Default Construction Set Name
  {a01b2441-49cb-46f8-bb12-1527ac4543d4}, !- Default Schedule Set Name
  ,                                       !- Standards Number of Stories
  ,                                       !- Standards Number of Above Ground Stories
  Hospital;                               !- Standards Building Type

OS:LifeCycleCost:Parameters,
  {231cf8a0-f0e7-4251-a99f-11f0d464e661}, !- Handle
  FEMP,                                   !- Analysis Type
  ,                                       !- Discounting Convention
  ,                                       !- Inflation Approach
  ,                                       !- Real Discount Rate
  ,                                       !- Nominal Discount Rate
  ,                                       !- Inflation
  ,                                       !- Base Date Month
  ,                                       !- Base Date Year
  ,                                       !- Service Date Month
  ,                                       !- Service Date Year
  ,                                       !- Length of Study Period in Years
  ,                                       !- Tax Rate
  ,                                       !- Depreciation Method
  Yes;                                    !- Use NIST Fuel Escalation Rates

OS:Facility,
  {3ba8e45b-b833-44eb-a723-ea6c3946dc96}; !- Handle

OS:SpaceType,
  {795aa635-ea14-444b-9bce-48be5ec8237a}, !- Handle
  Hospital|BlendPat|DOE Ref 1980-2004|ASHRAE 169-2006-5A, !- Name
  {292b7e4f-401a-486f-af4b-5f6251c498ea}, !- Default Construction Set Name
  ,                                       !- Default Schedule Set Name
  {ddad10bc-593c-4145-afc3-b7d88499feff}, !- Group Rendering Name
  {268b5402-4e79-4dc2-a484-f8f93d04eb85}, !- Design Specification Outdoor Air Object Name
  Hospital,                               !- Standards Building Type
  BlendPat;                               !- Standards Space Type

OS:Rendering:Color,
  {ddad10bc-593c-4145-afc3-b7d88499feff}, !- Handle
  Rendering Color 1,                      !- Name
  31,                                     !- Rendering Red Value
  162,                                    !- Rendering Green Value
  169;                                    !- Rendering Blue Value

OS:SpaceType,
  {8e9ab79d-8227-4eff-a447-abeec6b2fd13}, !- Handle
  Hospital|BlendCirc|DOE Ref 1980-2004|ASHRAE 169-2006-5A, !- Name
  {292b7e4f-401a-486f-af4b-5f6251c498ea}, !- Default Construction Set Name
  ,                                       !- Default Schedule Set Name
  {1c816796-2977-4032-97f8-ec7a0d259916}, !- Group Rendering Name
  {855930ed-e90a-4d93-b022-848681239208}, !- Design Specification Outdoor Air Object Name
  Hospital,                               !- Standards Building Type
  BlendCirc;                              !- Standards Space Type

OS:Rendering:Color,
  {1c816796-2977-4032-97f8-ec7a0d259916}, !- Handle
  Rendering Color 2,                      !- Name
  169,                                    !- Rendering Red Value
  31,                                     !- Rendering Green Value
  31;                                     !- Rendering Blue Value

OS:SpaceType,
  {8d3db49a-3eba-4012-aa69-3017d9ac7ff8}, !- Handle
  Hospital|Kitchen|DOE Ref 1980-2004|ASHRAE 169-2006-5A, !- Name
  {292b7e4f-401a-486f-af4b-5f6251c498ea}, !- Default Construction Set Name
  {85f91826-c222-43bb-af35-ae8d67fb3154}, !- Default Schedule Set Name
  {eae66b63-2259-4b05-ae97-81af73de4bf1}, !- Group Rendering Name
  {e87d9ebd-7d84-4198-a318-de6e40c2592a}, !- Design Specification Outdoor Air Object Name
  Hospital,                               !- Standards Building Type
  Kitchen;                                !- Standards Space Type

OS:Rendering:Color,
  {eae66b63-2259-4b05-ae97-81af73de4bf1}, !- Handle
  Rendering Color 3,                      !- Name
  78,                                     !- Rendering Red Value
  222,                                    !- Rendering Green Value
  133;                                    !- Rendering Blue Value

OS:SpaceType,
  {e689dc17-3d67-43a6-a1a0-822e7b30b84b}, !- Handle
  Hospital|Dining|DOE Ref 1980-2004|ASHRAE 169-2006-5A, !- Name
  {292b7e4f-401a-486f-af4b-5f6251c498ea}, !- Default Construction Set Name
  {12ee4c5e-6194-4423-bfe8-c2df06fad6e8}, !- Default Schedule Set Name
  {0e352833-18c4-4f02-960e-43e0947db474}, !- Group Rendering Name
  {684499f5-4512-42a1-bb0e-beec72d4cfa5}, !- Design Specification Outdoor Air Object Name
  Hospital,                               !- Standards Building Type
  Dining;                                 !- Standards Space Type

OS:Rendering:Color,
  {0e352833-18c4-4f02-960e-43e0947db474}, !- Handle
  Rendering Color 4,                      !- Name
  31,                                     !- Rendering Red Value
  169,                                    !- Rendering Green Value
  34;                                     !- Rendering Blue Value

OS:SpaceType,
  {b6f75b36-1c0b-48b2-bc42-b850a99c6902}, !- Handle
  Hospital|Lab|DOE Ref 1980-2004|ASHRAE 169-2006-5A, !- Name
  {292b7e4f-401a-486f-af4b-5f6251c498ea}, !- Default Construction Set Name
  {302d6f0b-c3a2-4a4d-8640-2ceb3dc97530}, !- Default Schedule Set Name
  {3e810966-f34f-4a37-8cfa-5e22cfb55d36}, !- Group Rendering Name
  {3b3ca96d-e60e-4569-8ee4-7ef4b7a60586}, !- Design Specification Outdoor Air Object Name
  Hospital,                               !- Standards Building Type
  Lab;                                    !- Standards Space Type

OS:Rendering:Color,
  {3e810966-f34f-4a37-8cfa-5e22cfb55d36}, !- Handle
  Rendering Color 5,                      !- Name
  204,                                    !- Rendering Red Value
  120,                                    !- Rendering Green Value
  230;                                    !- Rendering Blue Value

OS:SpaceType,
  {2d64040d-d141-4495-b718-96e70ecc367e}, !- Handle
  Hospital|Radiology|DOE Ref 1980-2004|ASHRAE 169-2006-5A, !- Name
  {292b7e4f-401a-486f-af4b-5f6251c498ea}, !- Default Construction Set Name
  {6fc04e6f-a067-4ce7-ba71-2b21464327e3}, !- Default Schedule Set Name
  {5bafb740-e3cc-4ff5-bdf3-beb8a1e61279}, !- Group Rendering Name
  {4a58c8e7-5d6f-476b-aa10-c02db78eb5bd}, !- Design Specification Outdoor Air Object Name
  Hospital,                               !- Standards Building Type
  Radiology;                              !- Standards Space Type

OS:Rendering:Color,
  {5bafb740-e3cc-4ff5-bdf3-beb8a1e61279}, !- Handle
  Rendering Color 6,                      !- Name
  136,                                    !- Rendering Red Value
  78,                                     !- Rendering Green Value
  222;                                    !- Rendering Blue Value

OS:Schedule:Ruleset,
  {8535fa43-ddf8-4bf9-84f7-634c02dcc87c}, !- Handle
  0400|2200|Hospital|default|hoo,         !- Name
  {5c0eea99-ae6e-47fd-831a-a03c7098f4d1}, !- Schedule Type Limits Name
  {e30641fb-fe08-4866-baf7-c8e8dbd0833d}, !- Default Day Schedule Name
  {712738d4-13d8-439d-9071-1082f97a4e6e}, !- Summer Design Day Schedule Name
  {b43a33f3-c853-408d-b843-94e9cd0c31fa}; !- Winter Design Day Schedule Name

OS:Schedule:Day,
  {e30641fb-fe08-4866-baf7-c8e8dbd0833d}, !- Handle
  0400|2200|Hospital|default|hoo Schedule Week Day, !- Name
  {5c0eea99-ae6e-47fd-831a-a03c7098f4d1}, !- Schedule Type Limits Name
  ,                                       !- Interpolate to Timestep
  4,                                      !- Hour 1
  0,                                      !- Minute 1
  0,                                      !- Value Until Time 1
  22,                                     !- Hour 2
  0,                                      !- Minute 2
  1,                                      !- Value Until Time 2
  24,                                     !- Hour 3
  0,                                      !- Minute 3
  0;                                      !- Value Until Time 3

OS:Schedule:Day,
  {f0a499e7-8ef2-4353-b436-791c40cf4078}, !- Handle
  Schedule Day 2,                         !- Name
  ,                                       !- Schedule Type Limits Name
  ,                                       !- Interpolate to Timestep
  24,                                     !- Hour 1
  0,                                      !- Minute 1
  0;                                      !- Value Until Time 1

OS:Schedule:Day,
  {b43a33f3-c853-408d-b843-94e9cd0c31fa}, !- Handle
  0400|2200|Hospital|default|hoo Winter Design Day, !- Name
  {5c0eea99-ae6e-47fd-831a-a03c7098f4d1}, !- Schedule Type Limits Name
  ,                                       !- Interpolate to Timestep
  24,                                     !- Hour 1
  0,                                      !- Minute 1
  0;                                      !- Value Until Time 1

OS:Schedule:Day,
  {f2fcf26f-b7d7-41ab-bf19-897f0da90d37}, !- Handle
  Schedule Day 3,                         !- Name
  ,                                       !- Schedule Type Limits Name
  ,                                       !- Interpolate to Timestep
  24,                                     !- Hour 1
  0,                                      !- Minute 1
  0;                                      !- Value Until Time 1

OS:Schedule:Day,
  {712738d4-13d8-439d-9071-1082f97a4e6e}, !- Handle
  0400|2200|Hospital|default|hoo Summer Design Day, !- Name
  {5c0eea99-ae6e-47fd-831a-a03c7098f4d1}, !- Schedule Type Limits Name
  ,                                       !- Interpolate to Timestep
  24,                                     !- Hour 1
  0,                                      !- Minute 1
  1;                                      !- Value Until Time 1

OS:DefaultScheduleSet,
  {a01b2441-49cb-46f8-bb12-1527ac4543d4}, !- Handle
  Building Hours of Operation,            !- Name
  {8535fa43-ddf8-4bf9-84f7-634c02dcc87c}, !- Hours of Operation Schedule Name
  ,                                       !- Number of People Schedule Name
  ,                                       !- People Activity Level Schedule Name
  ,                                       !- Lighting Schedule Name
  ,                                       !- Electric Equipment Schedule Name
  ,                                       !- Gas Equipment Schedule Name
  ,                                       !- Hot Water Equipment Schedule Name
  ,                                       !- Infiltration Schedule Name
  ,                                       !- Steam Equipment Schedule Name
  ;                                       !- Other Equipment Schedule Name

OS:ScheduleTypeLimits,
  {5c0eea99-ae6e-47fd-831a-a03c7098f4d1}, !- Handle
  OnOff,                                  !- Name
  0,                                      !- Lower Limit Value {BasedOnField A4}
  1,                                      !- Upper Limit Value {BasedOnField A4}
  Discrete,                               !- Numeric Type
  Availability;                           !- Unit Type

OS:Schedule:Ruleset,
  {2d61f75f-2390-4e7e-9e12-4889f95f0a9a}, !- Handle
  0400|2200|Hospital|default|ext_lighting, !- Name
  {78d337c2-0adc-4fa8-8b4b-2a005f95204a}, !- Schedule Type Limits Name
  {393f4180-6c26-4012-a10a-d14e9568f414}, !- Default Day Schedule Name
  {c8f7ecee-db8c-446a-a9dc-0f185bdcb8a0}, !- Summer Design Day Schedule Name
  {a9286f0c-7fab-4c39-9299-5f85366b6d8a}; !- Winter Design Day Schedule Name

OS:ScheduleTypeLimits,
  {78d337c2-0adc-4fa8-8b4b-2a005f95204a}, !- Handle
  Lights Schedule Type Limits,            !- Name
  0,                                      !- Lower Limit Value {BasedOnField A4}
  1,                                      !- Upper Limit Value {BasedOnField A4}
  Continuous,                             !- Numeric Type
  Dimensionless;                          !- Unit Type

OS:Schedule:Day,
  {393f4180-6c26-4012-a10a-d14e9568f414}, !- Handle
  0400|2200|Hospital|default|ext_lighting |default, !- Name
  {78d337c2-0adc-4fa8-8b4b-2a005f95204a}, !- Schedule Type Limits Name
  ,                                       !- Interpolate to Timestep
  24,                                     !- Hour 1
  0,                                      !- Minute 1
  1;                                      !- Value Until Time 1

OS:Schedule:Day,
  {c8f7ecee-db8c-446a-a9dc-0f185bdcb8a0}, !- Handle
  0400|2200|Hospital|default|ext_lighting Summer Design Day, !- Name
  {78d337c2-0adc-4fa8-8b4b-2a005f95204a}, !- Schedule Type Limits Name
  ,                                       !- Interpolate to Timestep
  24,                                     !- Hour 1
  0,                                      !- Minute 1
  1;                                      !- Value Until Time 1

OS:Schedule:Day,
  {a9286f0c-7fab-4c39-9299-5f85366b6d8a}, !- Handle
  0400|2200|Hospital|default|ext_lighting Winter Design Day, !- Name
  {78d337c2-0adc-4fa8-8b4b-2a005f95204a}, !- Schedule Type Limits Name
  ,                                       !- Interpolate to Timestep
  24,                                     !- Hour 1
  0,                                      !- Minute 1
  1;                                      !- Value Until Time 1

OS:Schedule:Ruleset,
  {21f2f0f6-3c40-433b-9dd7-80c3020561e4}, !- Handle
  0400|2200|Hospital|Hospital Critical HtgSetp|htg_setpoint, !- Name
  {6dd5a82d-56ba-4f83-81fb-43da03323fe1}, !- Schedule Type Limits Name
  {fe393870-df86-432b-bede-ee3828ff6d38}, !- Default Day Schedule Name
  {0ff65534-eecb-4bc7-a203-104fbaf37a86}, !- Summer Design Day Schedule Name
  {698640a3-dcc1-4c65-8021-fb63bfb2d232}; !- Winter Design Day Schedule Name

OS:ScheduleTypeLimits,
  {6dd5a82d-56ba-4f83-81fb-43da03323fe1}, !- Handle
  Thermostat Heating Setpoint Schedule Type Limits, !- Name
  0,                                      !- Lower Limit Value {BasedOnField A4}
  100,                                    !- Upper Limit Value {BasedOnField A4}
  Continuous,                             !- Numeric Type
  Temperature;                            !- Unit Type

OS:Schedule:Day,
  {fe393870-df86-432b-bede-ee3828ff6d38}, !- Handle
  0400|2200|Hospital|Hospital Critical HtgSetp|htg_setpoint |default, !- Name
  {6dd5a82d-56ba-4f83-81fb-43da03323fe1}, !- Schedule Type Limits Name
  ,                                       !- Interpolate to Timestep
  24,                                     !- Hour 1
  0,                                      !- Minute 1
  21.1;                                   !- Value Until Time 1

OS:Schedule:Day,
  {0ff65534-eecb-4bc7-a203-104fbaf37a86}, !- Handle
  0400|2200|Hospital|Hospital Critical HtgSetp|htg_setpoint Summer Design Day, !- Name
  {6dd5a82d-56ba-4f83-81fb-43da03323fe1}, !- Schedule Type Limits Name
  ,                                       !- Interpolate to Timestep
  24,                                     !- Hour 1
  0,                                      !- Minute 1
  21.1;                                   !- Value Until Time 1

OS:Schedule:Day,
  {698640a3-dcc1-4c65-8021-fb63bfb2d232}, !- Handle
  0400|2200|Hospital|Hospital Critical HtgSetp|htg_setpoint Winter Design Day, !- Name
  {6dd5a82d-56ba-4f83-81fb-43da03323fe1}, !- Schedule Type Limits Name
  ,                                       !- Interpolate to Timestep
  24,                                     !- Hour 1
  0,                                      !- Minute 1
  21.1;                                   !- Value Until Time 1

OS:Schedule:Ruleset,
  {babf6973-17ac-4296-88c4-33e60544206b}, !- Handle
  0400|2200|Hospital|ER_Exam|clg_setpoint, !- Name
  {35dacc6b-7127-4eca-8e4b-324da4c1ab5b}, !- Schedule Type Limits Name
  {927de903-ee2c-4347-8bfc-a71030e05745}, !- Default Day Schedule Name
  {5dc608f8-bb82-4c2e-b076-530078bd327d}, !- Summer Design Day Schedule Name
  {6365abbb-5168-4d87-b7ac-1790b6fe0341}; !- Winter Design Day Schedule Name

OS:ScheduleTypeLimits,
  {35dacc6b-7127-4eca-8e4b-324da4c1ab5b}, !- Handle
  Thermostat Cooling Setpoint Schedule Type Limits, !- Name
  0,                                      !- Lower Limit Value {BasedOnField A4}
  100,                                    !- Upper Limit Value {BasedOnField A4}
  Continuous,                             !- Numeric Type
  Temperature;                            !- Unit Type

OS:Schedule:Day,
  {927de903-ee2c-4347-8bfc-a71030e05745}, !- Handle
  0400|2200|Hospital|ER_Exam|clg_setpoint |default, !- Name
  {35dacc6b-7127-4eca-8e4b-324da4c1ab5b}, !- Schedule Type Limits Name
  ,                                       !- Interpolate to Timestep
  24,                                     !- Hour 1
  0,                                      !- Minute 1
  22.2;                                   !- Value Until Time 1

OS:Schedule:Day,
  {5dc608f8-bb82-4c2e-b076-530078bd327d}, !- Handle
  0400|2200|Hospital|ER_Exam|clg_setpoint Summer Design Day, !- Name
  {35dacc6b-7127-4eca-8e4b-324da4c1ab5b}, !- Schedule Type Limits Name
  ,                                       !- Interpolate to Timestep
  24,                                     !- Hour 1
  0,                                      !- Minute 1
  22.2;                                   !- Value Until Time 1

OS:Schedule:Day,
  {6365abbb-5168-4d87-b7ac-1790b6fe0341}, !- Handle
  0400|2200|Hospital|ER_Exam|clg_setpoint Winter Design Day, !- Name
  {35dacc6b-7127-4eca-8e4b-324da4c1ab5b}, !- Schedule Type Limits Name
  ,                                       !- Interpolate to Timestep
  24,                                     !- Hour 1
  0,                                      !- Minute 1
  22.2;                                   !- Value Until Time 1

OS:Schedule:Ruleset,
  {353ef828-faae-47a7-ad11-d2465edafaff}, !- Handle
  0400|2200|Hospital|ICU_PatRm|clg_setpoint, !- Name
  {35dacc6b-7127-4eca-8e4b-324da4c1ab5b}, !- Schedule Type Limits Name
  {212edbcc-5ea3-4d24-b7da-ec2771b69d63}, !- Default Day Schedule Name
  {fd6079af-e0f4-473b-b83f-ad2fa9c58d97}, !- Summer Design Day Schedule Name
  {803c0f87-7430-443c-bf3f-321387cf4d89}; !- Winter Design Day Schedule Name

OS:Schedule:Day,
  {212edbcc-5ea3-4d24-b7da-ec2771b69d63}, !- Handle
  0400|2200|Hospital|ICU_PatRm|clg_setpoint |default, !- Name
  {35dacc6b-7127-4eca-8e4b-324da4c1ab5b}, !- Schedule Type Limits Name
  ,                                       !- Interpolate to Timestep
  24,                                     !- Hour 1
  0,                                      !- Minute 1
  22.2;                                   !- Value Until Time 1

OS:Schedule:Day,
  {fd6079af-e0f4-473b-b83f-ad2fa9c58d97}, !- Handle
  0400|2200|Hospital|ICU_PatRm|clg_setpoint Summer Design Day, !- Name
  {35dacc6b-7127-4eca-8e4b-324da4c1ab5b}, !- Schedule Type Limits Name
  ,                                       !- Interpolate to Timestep
  24,                                     !- Hour 1
  0,                                      !- Minute 1
  22.2;                                   !- Value Until Time 1

OS:Schedule:Day,
  {803c0f87-7430-443c-bf3f-321387cf4d89}, !- Handle
  0400|2200|Hospital|ICU_PatRm|clg_setpoint Winter Design Day, !- Name
  {35dacc6b-7127-4eca-8e4b-324da4c1ab5b}, !- Schedule Type Limits Name
  ,                                       !- Interpolate to Timestep
  24,                                     !- Hour 1
  0,                                      !- Minute 1
  22.2;                                   !- Value Until Time 1

OS:Schedule:Ruleset,
  {d53b8e87-a9d7-4a51-8bb6-6e1d88c66dc2}, !- Handle
  0400|2200|Hospital|Hospital Critical Equip|elec_equip, !- Name
  {8e4d019d-62e0-443d-9151-149e61c6a7db}, !- Schedule Type Limits Name
  {c450db12-2789-49c6-871a-f062831577a7}, !- Default Day Schedule Name
  {02a28c42-6bea-4e61-8880-871244b104f7}, !- Summer Design Day Schedule Name
  {133e4fd6-337a-4f32-881a-e32cf455b304}; !- Winter Design Day Schedule Name

OS:ScheduleTypeLimits,
  {8e4d019d-62e0-443d-9151-149e61c6a7db}, !- Handle
  Equipment Schedule Type Limits,         !- Name
  0,                                      !- Lower Limit Value {BasedOnField A4}
  1,                                      !- Upper Limit Value {BasedOnField A4}
  Continuous,                             !- Numeric Type
  Dimensionless;                          !- Unit Type

OS:Schedule:Day,
  {c450db12-2789-49c6-871a-f062831577a7}, !- Handle
  0400|2200|Hospital|Hospital Critical Equip|elec_equip |default, !- Name
  {8e4d019d-62e0-443d-9151-149e61c6a7db}, !- Schedule Type Limits Name
  ,                                       !- Interpolate to Timestep
  6,                                      !- Hour 1
  0,                                      !- Minute 1
  0.5,                                    !- Value Until Time 1
  18,                                     !- Hour 2
  0,                                      !- Minute 2
  1,                                      !- Value Until Time 2
  20,                                     !- Hour 3
  0,                                      !- Minute 3
  0.8,                                    !- Value Until Time 3
  24,                                     !- Hour 4
  0,                                      !- Minute 4
  0.5;                                    !- Value Until Time 4

OS:Schedule:Day,
  {02a28c42-6bea-4e61-8880-871244b104f7}, !- Handle
  0400|2200|Hospital|Hospital Critical Equip|elec_equip Summer Design Day, !- Name
  {8e4d019d-62e0-443d-9151-149e61c6a7db}, !- Schedule Type Limits Name
  ,                                       !- Interpolate to Timestep
  24,                                     !- Hour 1
  0,                                      !- Minute 1
  1;                                      !- Value Until Time 1

OS:Schedule:Day,
  {133e4fd6-337a-4f32-881a-e32cf455b304}, !- Handle
  0400|2200|Hospital|Hospital Critical Equip|elec_equip Winter Design Day, !- Name
  {8e4d019d-62e0-443d-9151-149e61c6a7db}, !- Schedule Type Limits Name
  ,                                       !- Interpolate to Timestep
  24,                                     !- Hour 1
  0,                                      !- Minute 1
  0.5;                                    !- Value Until Time 1

OS:Schedule:Ruleset,
  {ba0552bd-82f1-447f-9b7e-996e42ed2d20}, !- Handle
  0400|2200|Hospital|ICU_Open|elec_equip, !- Name
  {8e4d019d-62e0-443d-9151-149e61c6a7db}, !- Schedule Type Limits Name
  {7e84be64-b47f-4561-9f59-dc4a8854f831}, !- Default Day Schedule Name
  {82caa236-efca-4c62-8fae-3f38404c1693}, !- Summer Design Day Schedule Name
  {bdcef36d-ecd6-4600-9583-7721fc25cc6b}; !- Winter Design Day Schedule Name

OS:Schedule:Day,
  {7e84be64-b47f-4561-9f59-dc4a8854f831}, !- Handle
  0400|2200|Hospital|ICU_Open|elec_equip |default, !- Name
  {8e4d019d-62e0-443d-9151-149e61c6a7db}, !- Schedule Type Limits Name
  ,                                       !- Interpolate to Timestep
  6,                                      !- Hour 1
  0,                                      !- Minute 1
  0.5,                                    !- Value Until Time 1
  18,                                     !- Hour 2
  0,                                      !- Minute 2
  1,                                      !- Value Until Time 2
  20,                                     !- Hour 3
  0,                                      !- Minute 3
  0.8,                                    !- Value Until Time 3
  24,                                     !- Hour 4
  0,                                      !- Minute 4
  0.5;                                    !- Value Until Time 4

OS:Schedule:Day,
  {82caa236-efca-4c62-8fae-3f38404c1693}, !- Handle
  0400|2200|Hospital|ICU_Open|elec_equip Summer Design Day, !- Name
  {8e4d019d-62e0-443d-9151-149e61c6a7db}, !- Schedule Type Limits Name
  ,                                       !- Interpolate to Timestep
  24,                                     !- Hour 1
  0,                                      !- Minute 1
  1;                                      !- Value Until Time 1

OS:Schedule:Day,
  {bdcef36d-ecd6-4600-9583-7721fc25cc6b}, !- Handle
  0400|2200|Hospital|ICU_Open|elec_equip Winter Design Day, !- Name
  {8e4d019d-62e0-443d-9151-149e61c6a7db}, !- Schedule Type Limits Name