
OS:Version,
  {cd63bc27-783d-4419-bce3-06c91a745709}, !- Handle
  1.6.0;                                  !- Version Identifier

OS:ClimateZones,
  {135edfab-17e7-40db-a436-27d385a8cd6d}, !- Handle
  ,                                       !- Active Institution
  ,                                       !- Active Year
  ASHRAE,                                 !- Climate Zone Institution Name 1
  ANSI/ASHRAE Standard 169,               !- Climate Zone Document Name 1
  2006,                                   !- Climate Zone Document Year 1
  ,                                       !- Climate Zone Value 1
  CEC,                                    !- Climate Zone Institution Name 2
  California Climate Zone Descriptions,   !- Climate Zone Document Name 2
  1995,                                   !- Climate Zone Document Year 2
  ;                                       !- Climate Zone Value 2

OS:YearDescription,
  {513d8dda-86cb-442a-b01c-1f7f0e0ac70e}; !- Handle

OS:RadianceParameters,
  {270a96f1-3c86-4b75-a667-cdf22790e2c8}, !- Handle
  1,                                      !- Accumulated Rays per Record
  0,                                      !- Direct Threshold
  1,                                      !- Direct Certainty
  1,                                      !- Direct Jitter
  1,                                      !- Direct Pretest
  6,                                      !- Ambient Bounces VMX
  2,                                      !- Ambient Bounces DMX
  4050,                                   !- Ambient Divisions VMX
  512,                                    !- Ambient Divisions DMX
  256,                                    !- Ambient Supersamples
  0.001,                                  !- Limit Weight VMX
  0.001,                                  !- Limit Weight DMX
  500,                                    !- Klems Sampling Density
  146;                                    !- Sky Discretization Resolution

OS:SimulationControl,
  {2c487a4c-bac9-4ac5-b669-1e49d9da7c2b}, !- Handle
  ,                                       !- Do Zone Sizing Calculation
  ,                                       !- Do System Sizing Calculation
  ,                                       !- Do Plant Sizing Calculation
  No,                                     !- Run Simulation for Sizing Periods
  ,                                       !- Run Simulation for Weather File Run Periods
  0.04,                                   !- Loads Convergence Tolerance Value
  ,                                       !- Temperature Convergence Tolerance Value {deltaC}
  ,                                       !- Solar Distribution
  ,                                       !- Maximum Number of Warmup Days
  2;                                      !- Minimum Number of Warmup Days

OS:Sizing:Parameters,
  {dde5af6f-7923-4600-a28a-7556673a0266}, !- Handle
  1.25,                                   !- Heating Sizing Factor
  1.15;                                   !- Cooling Sizing Factor

OS:ProgramControl,
  {05027a99-f2b3-4aeb-afc6-1425fbb4371d}; !- Handle

OS:Timestep,
  {4ebc9f1e-4707-402e-9844-67eb1ffbd522}, !- Handle
  2;                                      !- Number of Timesteps per Hour

OS:OutputControl:ReportingTolerances,
  {65797aa2-06a9-45fe-b69d-bc6e060399d3}; !- Handle

OS:ConvergenceLimits,
  {9fc11aba-8822-4f3d-970c-46391ba4040d}; !- Handle

OS:ShadowCalculation,
  {ca758bea-4416-4626-9bba-3d8795c79bd6}, !- Handle
  7,                                      !- Calculation Frequency
  15000;                                  !- Maximum Figures in Shadow Overlap Calculations

OS:SurfaceConvectionAlgorithm:Inside,
  {aaabfc36-718a-4ab0-b622-f186ebb45230}, !- Handle
  TARP;                                   !- Algorithm

OS:SurfaceConvectionAlgorithm:Outside,
  {9a0a9f6f-4bbd-4b12-a121-9492a1fcd7d6}, !- Handle
  DOE-2;                                  !- Algorithm

OS:HeatBalanceAlgorithm,
  {9d93e563-e1e0-46d7-9e39-d1c8aceb7212}, !- Handle
  ConductionTransferFunction,             !- Algorithm
  200;                                    !- Surface Temperature Upper Limit {F}

OS:ZoneAirHeatBalanceAlgorithm,
  {8520d93e-310f-4696-9bcd-36228bfdd743}, !- Handle
  AnalyticalSolution;                     !- Algorithm

OS:ZoneAirContaminantBalance,
  {eb5fc3ae-fb22-4160-8fcb-3e3b22b000d3}; !- Handle

OS:ZoneCapacitanceMultiplier:ResearchSpecial,
  {4020ce4f-5a7a-4849-8028-8305d7b751b1}, !- Handle
  ,                                       !- Temperature Capacity Multiplier
  ,                                       !- Humidity Capacity Multiplier
  ;                                       !- Carbon Dioxide Capacity Multiplier

OS:RunPeriod,
  {28df894d-6af9-4fb8-8f56-df1753344aa3}, !- Handle
  Run Period 1,                           !- Name
  1,                                      !- Begin Month
  1,                                      !- Begin Day of Month
  12,                                     !- End Month
  31,                                     !- End Day of Month
  ,                                       !- Use Weather File Holidays and Special Days
  ,                                       !- Use Weather File Daylight Saving Period
  ,                                       !- Apply Weekend Holiday Rule
  ,                                       !- Use Weather File Rain Indicators
  ,                                       !- Use Weather File Snow Indicators
  ;                                       !- Number of Times Runperiod to be Repeated

OS:Building,
  {bf305633-c5a1-4881-9edf-ca5e1a8e1274}, !- Handle
  Building 1,                             !- Name
  ,                                       !- Building Sector Type
  ,                                       !- North Axis {deg}
  ,                                       !- Nominal Floor to Floor Height {m}
  ,                                       !- Space Type Name
  ,                                       !- Default Construction Set Name
  {7b0f5707-8931-4673-838c-6e8928584707}, !- Default Schedule Set Name
  ,                                       !- Standards Number of Stories
  ,                                       !- Standards Number of Above Ground Stories
  Hospital;                               !- Standards Building Type

OS:LifeCycleCost:Parameters,
  {231cf8a0-f0e7-4251-a99f-11f0d464e661}, !- Handle
  FEMP,                                   !- Analysis Type
  ,                                       !- Discounting Convention
  ,                                       !- Inflation Approach
  ,                                       !- Real Discount Rate
  ,                                       !- Nominal Discount Rate
  ,                                       !- Inflation
  ,                                       !- Base Date Month
  ,                                       !- Base Date Year
  ,                                       !- Service Date Month
  ,                                       !- Service Date Year
  ,                                       !- Length of Study Period in Years
  ,                                       !- Tax Rate
  ,                                       !- Depreciation Method
  Yes;                                    !- Use NIST Fuel Escalation Rates

OS:Facility,
  {3ba8e45b-b833-44eb-a723-ea6c3946dc96}; !- Handle

OS:SpaceType,
  {d9cc3766-3e03-46dd-8f2c-2b9585182d6b}, !- Handle
  Hospital|BlendPat|DOE Ref Pre-1980|ASHRAE 169-2006-5A, !- Name
  {d08d0e76-97c8-4d87-b840-e03d94578c82}, !- Default Construction Set Name
  ,                                       !- Default Schedule Set Name
  {33c23959-cf47-49f5-898d-1ce4d0298faf}, !- Group Rendering Name
  {0ff438bc-302c-4283-a8ad-c604b481b9cf}, !- Design Specification Outdoor Air Object Name
  Hospital,                               !- Standards Building Type
  BlendPat;                               !- Standards Space Type

OS:Rendering:Color,
  {33c23959-cf47-49f5-898d-1ce4d0298faf}, !- Handle
  Rendering Color 1,                      !- Name
  31,                                     !- Rendering Red Value
  162,                                    !- Rendering Green Value
  169;                                    !- Rendering Blue Value

OS:SpaceType,
  {d954d600-9ec0-4e70-b050-ccf3265afed2}, !- Handle
  Hospital|BlendCirc|DOE Ref Pre-1980|ASHRAE 169-2006-5A, !- Name
  {d08d0e76-97c8-4d87-b840-e03d94578c82}, !- Default Construction Set Name
  ,                                       !- Default Schedule Set Name
  {60c23fc4-0ccf-400c-98fc-1aa081a9976b}, !- Group Rendering Name
  {764b12c5-471b-4a78-aa75-696d70b2dba1}, !- Design Specification Outdoor Air Object Name
  Hospital,                               !- Standards Building Type
  BlendCirc;                              !- Standards Space Type

OS:Rendering:Color,
  {60c23fc4-0ccf-400c-98fc-1aa081a9976b}, !- Handle
  Rendering Color 2,                      !- Name
  169,                                    !- Rendering Red Value
  31,                                     !- Rendering Green Value
  31;                                     !- Rendering Blue Value

OS:SpaceType,
  {c6ce23a7-e06f-4891-a9b7-c5c4f33cc3ea}, !- Handle
  Hospital|Kitchen|DOE Ref Pre-1980|ASHRAE 169-2006-5A, !- Name
  {d08d0e76-97c8-4d87-b840-e03d94578c82}, !- Default Construction Set Name
  {828732f0-2b61-4203-8fb4-b757def916b2}, !- Default Schedule Set Name
  {4fc2fdd2-db65-4e7f-b36c-4c071aee363e}, !- Group Rendering Name
  {e3a78983-997f-473b-9d40-92e6593c0745}, !- Design Specification Outdoor Air Object Name
  Hospital,                               !- Standards Building Type
  Kitchen;                                !- Standards Space Type

OS:Rendering:Color,
  {4fc2fdd2-db65-4e7f-b36c-4c071aee363e}, !- Handle
  Rendering Color 3,                      !- Name
  78,                                     !- Rendering Red Value
  222,                                    !- Rendering Green Value
  133;                                    !- Rendering Blue Value

OS:SpaceType,
  {74ad03ac-3c09-42bd-9760-3f78a73c4d95}, !- Handle
  Hospital|Dining|DOE Ref Pre-1980|ASHRAE 169-2006-5A, !- Name
  {d08d0e76-97c8-4d87-b840-e03d94578c82}, !- Default Construction Set Name
  {845d0e87-902c-42aa-8a98-6b4b62ffd6fe}, !- Default Schedule Set Name
  {ce663549-35b0-46ad-881c-3bcf30c35671}, !- Group Rendering Name
  {0e9a95ac-baa5-448c-8f70-dfb65d4ccc8c}, !- Design Specification Outdoor Air Object Name
  Hospital,                               !- Standards Building Type
  Dining;                                 !- Standards Space Type

OS:Rendering:Color,
  {ce663549-35b0-46ad-881c-3bcf30c35671}, !- Handle
  Rendering Color 4,                      !- Name
  31,                                     !- Rendering Red Value
  169,                                    !- Rendering Green Value
  34;                                     !- Rendering Blue Value

OS:SpaceType,
  {76f44d9d-18c7-49e0-94e9-4b4dd4f077f8}, !- Handle
  Hospital|Lab|DOE Ref Pre-1980|ASHRAE 169-2006-5A, !- Name
  {d08d0e76-97c8-4d87-b840-e03d94578c82}, !- Default Construction Set Name
  {0d1aed6a-8cce-4e7d-adad-65d51875340c}, !- Default Schedule Set Name
  {de86ddf5-e0a7-4e0b-bea6-41faf543eaed}, !- Group Rendering Name
  {f45b1a9e-fbb6-4b48-8270-cc794d71a8bb}, !- Design Specification Outdoor Air Object Name
  Hospital,                               !- Standards Building Type
  Lab;                                    !- Standards Space Type

OS:Rendering:Color,
  {de86ddf5-e0a7-4e0b-bea6-41faf543eaed}, !- Handle
  Rendering Color 5,                      !- Name
  204,                                    !- Rendering Red Value
  120,                                    !- Rendering Green Value
  230;                                    !- Rendering Blue Value

OS:SpaceType,
  {875f09c4-8a4a-46a5-a4c5-537b6c5578b3}, !- Handle
  Hospital|Radiology|DOE Ref Pre-1980|ASHRAE 169-2006-5A, !- Name
  {d08d0e76-97c8-4d87-b840-e03d94578c82}, !- Default Construction Set Name
  {ecbdf688-ddc9-4c6c-82b1-e8cd06803a2e}, !- Default Schedule Set Name
  {5ca06ed6-1840-43b0-997f-d3210f1df901}, !- Group Rendering Name
  {8f618c10-c337-477f-8681-9160500959ee}, !- Design Specification Outdoor Air Object Name
  Hospital,                               !- Standards Building Type
  Radiology;                              !- Standards Space Type

OS:Rendering:Color,
  {5ca06ed6-1840-43b0-997f-d3210f1df901}, !- Handle
  Rendering Color 6,                      !- Name
  136,                                    !- Rendering Red Value
  78,                                     !- Rendering Green Value
  222;                                    !- Rendering Blue Value

OS:Schedule:Ruleset,
  {80b243c0-6ea4-45df-a628-cea06f9d0c59}, !- Handle
  0400|2200|Hospital|default|hoo,         !- Name
  {18561c41-3a32-49a9-b54e-482821d7fd0f}, !- Schedule Type Limits Name
  {67394c2d-185e-4a87-815d-ce86f05cd1e6}, !- Default Day Schedule Name
  {f9e2a82b-4998-42b6-9b72-a2f6c5f8dc63}, !- Summer Design Day Schedule Name
  {cc1358cf-0095-4c20-b12d-15730ecad424}; !- Winter Design Day Schedule Name

OS:Schedule:Day,
  {67394c2d-185e-4a87-815d-ce86f05cd1e6}, !- Handle
  0400|2200|Hospital|default|hoo Schedule Week Day, !- Name
  {18561c41-3a32-49a9-b54e-482821d7fd0f}, !- Schedule Type Limits Name
  ,                                       !- Interpolate to Timestep
  4,                                      !- Hour 1
  0,                                      !- Minute 1
  0,                                      !- Value Until Time 1
  22,                                     !- Hour 2
  0,                                      !- Minute 2
  1,                                      !- Value Until Time 2
  24,                                     !- Hour 3
  0,                                      !- Minute 3
  0;                                      !- Value Until Time 3

OS:Schedule:Day,
  {bee55e88-8df2-4aff-8778-079d71f03c05}, !- Handle
  Schedule Day 2,                         !- Name
  ,                                       !- Schedule Type Limits Name
  ,                                       !- Interpolate to Timestep
  24,                                     !- Hour 1
  0,                                      !- Minute 1
  0;                                      !- Value Until Time 1

OS:Schedule:Day,
  {cc1358cf-0095-4c20-b12d-15730ecad424}, !- Handle
  0400|2200|Hospital|default|hoo Winter Design Day, !- Name
  {18561c41-3a32-49a9-b54e-482821d7fd0f}, !- Schedule Type Limits Name
  ,                                       !- Interpolate to Timestep
  24,                                     !- Hour 1
  0,                                      !- Minute 1
  0;                                      !- Value Until Time 1

OS:Schedule:Day,
  {2e244710-f816-4414-b2a5-3977d2a40075}, !- Handle
  Schedule Day 3,                         !- Name
  ,                                       !- Schedule Type Limits Name
  ,                                       !- Interpolate to Timestep
  24,                                     !- Hour 1
  0,                                      !- Minute 1
  0;                                      !- Value Until Time 1

OS:Schedule:Day,
  {f9e2a82b-4998-42b6-9b72-a2f6c5f8dc63}, !- Handle
  0400|2200|Hospital|default|hoo Summer Design Day, !- Name
  {18561c41-3a32-49a9-b54e-482821d7fd0f}, !- Schedule Type Limits Name
  ,                                       !- Interpolate to Timestep
  24,                                     !- Hour 1
  0,                                      !- Minute 1
  1;                                      !- Value Until Time 1

OS:DefaultScheduleSet,
  {7b0f5707-8931-4673-838c-6e8928584707}, !- Handle
  Building Hours of Operation,            !- Name
  {80b243c0-6ea4-45df-a628-cea06f9d0c59}, !- Hours of Operation Schedule Name
  ,                                       !- Number of People Schedule Name
  ,                                       !- People Activity Level Schedule Name
  ,                                       !- Lighting Schedule Name
  ,                                       !- Electric Equipment Schedule Name
  ,                                       !- Gas Equipment Schedule Name
  ,                                       !- Hot Water Equipment Schedule Name
  ,                                       !- Infiltration Schedule Name
  ,                                       !- Steam Equipment Schedule Name
  ;                                       !- Other Equipment Schedule Name

OS:ScheduleTypeLimits,
  {18561c41-3a32-49a9-b54e-482821d7fd0f}, !- Handle
  OnOff,                                  !- Name
  0,                                      !- Lower Limit Value {BasedOnField A4}
  1,                                      !- Upper Limit Value {BasedOnField A4}
  Discrete,                               !- Numeric Type
  Availability;                           !- Unit Type

OS:Schedule:Ruleset,
  {7216a5a1-19fe-4de1-b751-e7ea7895bc8f}, !- Handle
  0400|2200|Hospital|Corridor|htg_setpoint, !- Name
  {884fcf7f-5fd0-4007-8bc7-c8234dc73c88}, !- Schedule Type Limits Name
  {771f33f4-f061-4479-9070-d1d3a5db04e1}, !- Default Day Schedule Name
  {553fe29e-cc3a-46d2-8424-8d455248361e}, !- Summer Design Day Schedule Name
  {758cb8dd-c6c7-41a6-b7ee-e8840226380f}; !- Winter Design Day Schedule Name

OS:ScheduleTypeLimits,
  {884fcf7f-5fd0-4007-8bc7-c8234dc73c88}, !- Handle
  Thermostat Heating Setpoint Schedule Type Limits, !- Name
  0,                                      !- Lower Limit Value {BasedOnField A4}
  100,                                    !- Upper Limit Value {BasedOnField A4}
  Continuous,                             !- Numeric Type
  Temperature;                            !- Unit Type

OS:Schedule:Day,
  {771f33f4-f061-4479-9070-d1d3a5db04e1}, !- Handle
  0400|2200|Hospital|Corridor|htg_setpoint |default, !- Name
  {884fcf7f-5fd0-4007-8bc7-c8234dc73c88}, !- Schedule Type Limits Name
  ,                                       !- Interpolate to Timestep
  24,                                     !- Hour 1
  0,                                      !- Minute 1
  21.1;                                   !- Value Until Time 1

OS:Schedule:Day,
  {553fe29e-cc3a-46d2-8424-8d455248361e}, !- Handle
  0400|2200|Hospital|Corridor|htg_setpoint Summer Design Day, !- Name
  {884fcf7f-5fd0-4007-8bc7-c8234dc73c88}, !- Schedule Type Limits Name
  ,                                       !- Interpolate to Timestep
  24,                                     !- Hour 1
  0,                                      !- Minute 1
  21.1;                                   !- Value Until Time 1

OS:Schedule:Day,
  {758cb8dd-c6c7-41a6-b7ee-e8840226380f}, !- Handle
  0400|2200|Hospital|Corridor|htg_setpoint Winter Design Day, !- Name
  {884fcf7f-5fd0-4007-8bc7-c8234dc73c88}, !- Schedule Type Limits Name
  ,                                       !- Interpolate to Timestep
  24,                                     !- Hour 1
  0,                                      !- Minute 1
  21.1;                                   !- Value Until Time 1

OS:Schedule:Ruleset,
  {3b0a3b59-2956-4d69-a939-07f1a6000258}, !- Handle
  0400|2200|Hospital|ICUOpen|clg_setpoint, !- Name
  {9e45a30a-320f-4863-9309-a14c5f8395d2}, !- Schedule Type Limits Name
  {94947ea4-c3eb-47ad-8ba9-bffc57d3aa03}, !- Default Day Schedule Name
  {41285cd1-9e96-41a6-b9e5-0771ac129c25}, !- Summer Design Day Schedule Name
  {a85350ba-cc14-40f0-b2ed-b08f1075c98f}; !- Winter Design Day Schedule Name

OS:ScheduleTypeLimits,
  {9e45a30a-320f-4863-9309-a14c5f8395d2}, !- Handle
  Thermostat Cooling Setpoint Schedule Type Limits, !- Name
  0,                                      !- Lower Limit Value {BasedOnField A4}
  100,                                    !- Upper Limit Value {BasedOnField A4}
  Continuous,                             !- Numeric Type
  Temperature;                            !- Unit Type

OS:Schedule:Day,
  {94947ea4-c3eb-47ad-8ba9-bffc57d3aa03}, !- Handle
  0400|2200|Hospital|ICUOpen|clg_setpoint |default, !- Name
  {9e45a30a-320f-4863-9309-a14c5f8395d2}, !- Schedule Type Limits Name
  ,                                       !- Interpolate to Timestep
  24,                                     !- Hour 1
  0,                                      !- Minute 1
  22.2;                                   !- Value Until Time 1

OS:Schedule:Day,
  {41285cd1-9e96-41a6-b9e5-0771ac129c25}, !- Handle
  0400|2200|Hospital|ICUOpen|clg_setpoint Summer Design Day, !- Name
  {9e45a30a-320f-4863-9309-a14c5f8395d2}, !- Schedule Type Limits Name
  ,                                       !- Interpolate to Timestep
  24,                                     !- Hour 1
  0,                                      !- Minute 1
  22.2;                                   !- Value Until Time 1

OS:Schedule:Day,
  {a85350ba-cc14-40f0-b2ed-b08f1075c98f}, !- Handle
  0400|2200|Hospital|ICUOpen|clg_setpoint Winter Design Day, !- Name
  {9e45a30a-320f-4863-9309-a14c5f8395d2}, !- Schedule Type Limits Name
  ,                                       !- Interpolate to Timestep
  24,                                     !- Hour 1
  0,                                      !- Minute 1
  22.2;                                   !- Value Until Time 1

OS:Schedule:Ruleset,
  {8294f406-146a-4095-9914-2c5f2eeda727}, !- Handle
  0400|2200|Hospital|OR|htg_setpoint,     !- Name
  {884fcf7f-5fd0-4007-8bc7-c8234dc73c88}, !- Schedule Type Limits Name
  {325acca1-2f57-41e9-bc26-ac86283cfc1c}, !- Default Day Schedule Name
  {c7bac110-9ed0-43b5-8170-459e17806051}, !- Summer Design Day Schedule Name
  {cab974c9-824e-42f1-aa37-55de2bec8693}; !- Winter Design Day Schedule Name

OS:Schedule:Day,
  {325acca1-2f57-41e9-bc26-ac86283cfc1c}, !- Handle
  0400|2200|Hospital|OR|htg_setpoint |default, !- Name
  {884fcf7f-5fd0-4007-8bc7-c8234dc73c88}, !- Schedule Type Limits Name
  ,                                       !- Interpolate to Timestep
  24,                                     !- Hour 1
  0,                                      !- Minute 1
  18.3;                                   !- Value Until Time 1

OS:Schedule:Day,
  {c7bac110-9ed0-43b5-8170-459e17806051}, !- Handle
  0400|2200|Hospital|OR|htg_setpoint Summer Design Day, !- Name
  {884fcf7f-5fd0-4007-8bc7-c8234dc73c88}, !- Schedule Type Limits Name
  ,                                       !- Interpolate to Timestep
  24,                                     !- Hour 1
  0,                                      !- Minute 1
  18.3;                                   !- Value Until Time 1

OS:Schedule:Day,
  {cab974c9-824e-42f1-aa37-55de2bec8693}, !- Handle
  0400|2200|Hospital|OR|htg_setpoint Winter Design Day, !- Name
  {884fcf7f-5fd0-4007-8bc7-c8234dc73c88}, !- Schedule Type Limits Name
  ,                                       !- Interpolate to Timestep
  24,                                     !- Hour 1
  0,                                      !- Minute 1
  18.3;                                   !- Value Until Time 1

OS:Schedule:Ruleset,
  {9c993b43-9543-4686-860d-a4ef5589c7f5}, !- Handle
  0400|2200|Hospital|ERTriage|elec_equip, !- Name
  {7e52a754-59b1-4587-bdfc-6d056a6fda50}, !- Schedule Type Limits Name
  {a5cf2f13-bf7c-4dfa-ba85-99cb0e8c6c5f}, !- Default Day Schedule Name
  {ba1dc131-8d5b-468c-90a2-0e7769762bbe}, !- Summer Design Day Schedule Name
  {42faf7f2-6383-466a-ae4f-998d3c862991}; !- Winter Design Day Schedule Name

OS:ScheduleTypeLimits,
  {7e52a754-59b1-4587-bdfc-6d056a6fda50}, !- Handle
  Equipment Schedule Type Limits,         !- Name
  0,                                      !- Lower Limit Value {BasedOnField A4}
  1,                                      !- Upper Limit Value {BasedOnField A4}
  Continuous,                             !- Numeric Type
  Dimensionless;                          !- Unit Type

OS:Schedule:Day,
  {a5cf2f13-bf7c-4dfa-ba85-99cb0e8c6c5f}, !- Handle
  0400|2200|Hospital|ERTriage|elec_equip |default, !- Name
  {7e52a754-59b1-4587-bdfc-6d056a6fda50}, !- Schedule Type Limits Name
  ,                                       !- Interpolate to Timestep
  6,                                      !- Hour 1
  0,                                      !- Minute 1
  0.5,                                    !- Value Until Time 1
  18,                                     !- Hour 2
  0,                                      !- Minute 2
  1,                                      !- Value Until Time 2
  20,                                     !- Hour 3
  0,                                      !- Minute 3
  0.8,                                    !- Value Until Time 3
  24,                                     !- Hour 4
  0,                                      !- Minute 4
  0.5;                                    !- Value Until Time 4

OS:Schedule:Day,
  {ba1dc131-8d5b-468c-90a2-0e7769762bbe}, !- Handle
  0400|2200|Hospital|ERTriage|elec_equip Summer Design Day, !- Name
  {7e52a754-59b1-4587-bdfc-6d056a6fda50}, !- Schedule Type Limits Name
  ,                                       !- Interpolate to Timestep
  24,                                     !- Hour 1
  0,                                      !- Minute 1
  1;                                      !- Value Until Time 1

OS:Schedule:Day,
  {42faf7f2-6383-466a-ae4f-998d3c862991}, !- Handle
  0400|2200|Hospital|ERTriage|elec_equip Winter Design Day, !- Name
  {7e52a754-59b1-4587-bdfc-6d056a6fda50}, !- Schedule Type Limits Name
  ,                                       !- Interpolate to Timestep
  24,                                     !- Hour 1
  0,                                      !- Minute 1
  0.5;                                    !- Value Until Time 1

OS:Schedule:Ruleset,
  {53451e00-7180-4997-998f-24164a05c4c4}, !- Handle
  0400|2200|Hospital|ERExam|clg_setpoint, !- Name
  {9e45a30a-320f-4863-9309-a14c5f8395d2}, !- Schedule Type Limits Name
  {bf980fa4-69e2-4733-b7bc-36c95bab75aa}, !- Default Day Schedule Name
  {7b43ba92-7399-4555-9852-02a10ba75621}, !- Summer Design Day Schedule Name
  {12106706-d74c-417c-a6c3-ec055b437606}; !- Winter Design Day Schedule Name

OS:Schedule:Day,
  {bf980fa4-69e2-4733-b7bc-36c95bab75aa}, !- Handle
  0400|2200|Hospital|ERExam|clg_setpoint |default, !- Name
  {9e45a30a-320f-4863-9309-a14c5f8395d2}, !- Schedule Type Limits Name
  ,                                       !- Interpolate to Timestep
  24,                                     !- Hour 1
  0,                                      !- Minute 1
  22.2;                                   !- Value Until Time 1

OS:Schedule:Day,
  {7b43ba92-7399-4555-9852-02a10ba75621}, !- Handle
  0400|2200|Hospital|ERExam|clg_setpoint Summer Design Day, !- Name
  {9e45a30a-320f-4863-9309-a14c5f8395d2}, !- Schedule Type Limits Name
  ,                                       !- Interpolate to Timestep
  24,                                     !- Hour 1
  0,                                      !- Minute 1
  22.2;                                   !- Value Until Time 1

OS:Schedule:Day,
  {12106706-d74c-417c-a6c3-ec055b437606}, !- Handle
  0400|2200|Hospital|ERExam|clg_setpoint Winter Design Day, !- Name
  {9e45a30a-320f-4863-9309-a14c5f8395d2}, !- Schedule Type Limits Name
  ,                                       !- Interpolate to Timestep
  24,                                     !- Hour 1
  0,                                      !- Minute 1
  22.2;                                   !- Value Until Time 1

OS:Schedule:Ruleset,
  {9eeca18c-f437-4045-8739-015099f03d8e}, !- Handle
  0400|2200|Hospital|default|hvac,        !- Name
  {63f0869e-1f25-4e3a-9d42-3b88b9610cd6}, !- Schedule Type Limits Name
  {a2fb23d3-a537-4a78-9567-a4e909713396}, !- Default Day Schedule Name
  {d795a3e4-c788-413d-a238-6f576484eaa6}, !- Summer Design Day Schedule Name
  {5112b597-80e0-4a5f-b5c1-f26b40adadcd}; !- Winter Design Day Schedule Name

OS:ScheduleTypeLimits,
  {63f0869e-1f25-4e3a-9d42-3b88b9610cd6}, !- Handle
  HVAC Operation Schedule Type Limits,    !- Name
  0,                                      !- Lower Limit Value {BasedOnField A4}
  1,                                      !- Upper Limit Value {BasedOnField A4}
  Discrete,                               !- Numeric Type
  Availability;                           !- Unit Type

OS:Schedule:Day,
  {a2fb23d3-a537-4a78-9567-a4e909713396}, !- Handle
  0400|2200|Hospital|default|hvac |default, !- Name
  {63f0869e-1f25-4e3a-9d42-3b88b9610cd6}, !- Schedule Type Limits Name
  ,                                       !- Interpolate to Timestep
  24,                                     !- Hour 1
  0,                                      !- Minute 1
  1;                                      !- Value Until Time 1

OS:Schedule:Day,
  {d795a3e4-c788-413d-a238-6f576484eaa6}, !- Handle
  0400|2200|Hospital|default|hvac Summer Design Day, !- Name
  {63f0869e-1f25-4e3a-9d42-3b88b9610cd6}, !- Schedule Type Limits Name
  ,                                       !- Interpolate to Timestep
  24,                                     !- Hour 1
  0,                                      !- Minute 1
  1;                                      !- Value Until Time 1

OS:Schedule:Day,
  {5112b597-80e0-4a5f-b5c1-f26b40adadcd}, !- Handle
  0400|2200|Hospital|default|hvac Winter Design Day, !- Name
  {63f0869e-1f25-4e3a-9d42-3b88b9610cd6}, !- Schedule Type Limits Name
  ,                                       !- Interpolate to Timestep
  24,                                     !- Hour 1
  0,                                      !- Minute 1
  1;                                      !- Value Until Time 1

OS:Schedule:Ruleset,
  {3572e2d8-3eb2-4b3f-8f3f-bdf61873108e}, !- Handle
  0400|2200|Hospital|default|lighting,    !- Name
  {94c3318b-221a-4455-bfaa-769370d26b00}, !- Schedule Type Limits Name
  {bde37385-9d48-4293-a17d-c21e22d4a5d9}, !- Default Day Schedule Name
  {a47a4fc9-f1d4-4553-b4c0-1fb5d471d01c}, !- Summer Design Day Schedule Name
  {16f55cbe-b981-480f-804f-2ac5b528ea40}; !- Winter Design Day Schedule Name

OS:ScheduleTypeLimits,