
OS:Version,
  {138b9d90-7bb4-4190-aa39-0f311102c551}, !- Handle
  1.6.0;                                  !- Version Identifier

OS:ClimateZones,
  {135edfab-17e7-40db-a436-27d385a8cd6d}, !- Handle
  ,                                       !- Active Institution
  ,                                       !- Active Year
  ASHRAE,                                 !- Climate Zone Institution Name 1
  ANSI/ASHRAE Standard 169,               !- Climate Zone Document Name 1
  2006,                                   !- Climate Zone Document Year 1
  ,                                       !- Climate Zone Value 1
  CEC,                                    !- Climate Zone Institution Name 2
  California Climate Zone Descriptions,   !- Climate Zone Document Name 2
  1995,                                   !- Climate Zone Document Year 2
  ;                                       !- Climate Zone Value 2

OS:YearDescription,
  {513d8dda-86cb-442a-b01c-1f7f0e0ac70e}; !- Handle

OS:RadianceParameters,
  {270a96f1-3c86-4b75-a667-cdf22790e2c8}, !- Handle
  1,                                      !- Accumulated Rays per Record
  0,                                      !- Direct Threshold
  1,                                      !- Direct Certainty
  1,                                      !- Direct Jitter
  1,                                      !- Direct Pretest
  6,                                      !- Ambient Bounces VMX
  2,                                      !- Ambient Bounces DMX
  4050,                                   !- Ambient Divisions VMX
  512,                                    !- Ambient Divisions DMX
  256,                                    !- Ambient Supersamples
  0.001,                                  !- Limit Weight VMX
  0.001,                                  !- Limit Weight DMX
  500,                                    !- Klems Sampling Density
  146;                                    !- Sky Discretization Resolution

OS:SimulationControl,
  {2c487a4c-bac9-4ac5-b669-1e49d9da7c2b}, !- Handle
  ,                                       !- Do Zone Sizing Calculation
  ,                                       !- Do System Sizing Calculation
  ,                                       !- Do Plant Sizing Calculation
  No,                                     !- Run Simulation for Sizing Periods
  ,                                       !- Run Simulation for Weather File Run Periods
  0.04,                                   !- Loads Convergence Tolerance Value
  ,                                       !- Temperature Convergence Tolerance Value {deltaC}
  ,                                       !- Solar Distribution
  ,                                       !- Maximum Number of Warmup Days
  2;                                      !- Minimum Number of Warmup Days

OS:Sizing:Parameters,
  {dde5af6f-7923-4600-a28a-7556673a0266}, !- Handle
  1.25,                                   !- Heating Sizing Factor
  1.15;                                   !- Cooling Sizing Factor

OS:ProgramControl,
  {05027a99-f2b3-4aeb-afc6-1425fbb4371d}; !- Handle

OS:Timestep,
  {4ebc9f1e-4707-402e-9844-67eb1ffbd522}, !- Handle
  2;                                      !- Number of Timesteps per Hour

OS:OutputControl:ReportingTolerances,
  {65797aa2-06a9-45fe-b69d-bc6e060399d3}; !- Handle

OS:ConvergenceLimits,
  {9fc11aba-8822-4f3d-970c-46391ba4040d}; !- Handle

OS:ShadowCalculation,
  {ca758bea-4416-4626-9bba-3d8795c79bd6}, !- Handle
  7,                                      !- Calculation Frequency
  15000;                                  !- Maximum Figures in Shadow Overlap Calculations

OS:SurfaceConvectionAlgorithm:Inside,
  {aaabfc36-718a-4ab0-b622-f186ebb45230}, !- Handle
  TARP;                                   !- Algorithm

OS:SurfaceConvectionAlgorithm:Outside,
  {9a0a9f6f-4bbd-4b12-a121-9492a1fcd7d6}, !- Handle
  DOE-2;                                  !- Algorithm

OS:HeatBalanceAlgorithm,
  {9d93e563-e1e0-46d7-9e39-d1c8aceb7212}, !- Handle
  ConductionTransferFunction,             !- Algorithm
  200;                                    !- Surface Temperature Upper Limit {F}

OS:ZoneAirHeatBalanceAlgorithm,
  {8520d93e-310f-4696-9bcd-36228bfdd743}, !- Handle
  AnalyticalSolution;                     !- Algorithm

OS:ZoneAirContaminantBalance,
  {eb5fc3ae-fb22-4160-8fcb-3e3b22b000d3}; !- Handle

OS:ZoneCapacitanceMultiplier:ResearchSpecial,
  {4020ce4f-5a7a-4849-8028-8305d7b751b1}, !- Handle
  ,                                       !- Temperature Capacity Multiplier
  ,                                       !- Humidity Capacity Multiplier
  ;                                       !- Carbon Dioxide Capacity Multiplier

OS:RunPeriod,
  {28df894d-6af9-4fb8-8f56-df1753344aa3}, !- Handle
  Run Period 1,                           !- Name
  1,                                      !- Begin Month
  1,                                      !- Begin Day of Month
  12,                                     !- End Month
  31,                                     !- End Day of Month
  ,                                       !- Use Weather File Holidays and Special Days
  ,                                       !- Use Weather File Daylight Saving Period
  ,                                       !- Apply Weekend Holiday Rule
  ,                                       !- Use Weather File Rain Indicators
  ,                                       !- Use Weather File Snow Indicators
  ;                                       !- Number of Times Runperiod to be Repeated

OS:Building,
  {bf305633-c5a1-4881-9edf-ca5e1a8e1274}, !- Handle
  Building 1,                             !- Name
  ,                                       !- Building Sector Type
  ,                                       !- North Axis {deg}
  ,                                       !- Nominal Floor to Floor Height {m}
  ,                                       !- Space Type Name
  ,                                       !- Default Construction Set Name
  {0a855989-7976-4c76-9ecd-b87d3e85e416}, !- Default Schedule Set Name
  ,                                       !- Standards Number of Stories
  ,                                       !- Standards Number of Above Ground Stories
  Laboratory;                             !- Standards Building Type

OS:LifeCycleCost:Parameters,
  {231cf8a0-f0e7-4251-a99f-11f0d464e661}, !- Handle
  FEMP,                                   !- Analysis Type
  ,                                       !- Discounting Convention
  ,                                       !- Inflation Approach
  ,                                       !- Real Discount Rate
  ,                                       !- Nominal Discount Rate
  ,                                       !- Inflation
  ,                                       !- Base Date Month
  ,                                       !- Base Date Year
  ,                                       !- Service Date Month
  ,                                       !- Service Date Year
  ,                                       !- Length of Study Period in Years
  ,                                       !- Tax Rate
  ,                                       !- Depreciation Method
  Yes;                                    !- Use NIST Fuel Escalation Rates

OS:Facility,
  {3ba8e45b-b833-44eb-a723-ea6c3946dc96}; !- Handle

OS:SpaceType,
  {9c340fa3-bcb7-4d4e-8b8f-be13109f5762}, !- Handle
  Laboratory|BlendOff|DOE Ref 2004|ASHRAE 169-2006-5A, !- Name
  {676243bb-0bb1-4ff0-8435-5b9eda695950}, !- Default Construction Set Name
  ,                                       !- Default Schedule Set Name
  {9cd81536-efdf-480c-a63d-fff49393ac52}, !- Group Rendering Name
  {24a82254-e7ec-4ed6-b8bf-410862c0a219}, !- Design Specification Outdoor Air Object Name
  Laboratory,                             !- Standards Building Type
  BlendOff;                               !- Standards Space Type

OS:Rendering:Color,
  {9cd81536-efdf-480c-a63d-fff49393ac52}, !- Handle
  Rendering Color 1,                      !- Name
  120,                                    !- Rendering Red Value
  230,                                    !- Rendering Green Value
  199;                                    !- Rendering Blue Value

OS:SpaceType,
  {c48f36c7-9429-4b5d-ba05-e6f2ea130db0}, !- Handle
  Laboratory|Lab|DOE Ref 2004|ASHRAE 169-2006-5A, !- Name
  {676243bb-0bb1-4ff0-8435-5b9eda695950}, !- Default Construction Set Name
  {36be9964-da5c-4eef-a474-52d5a1195ddc}, !- Default Schedule Set Name
  {80492f06-7c53-4734-9425-05e74081e449}, !- Group Rendering Name
  {71ff45fe-d573-42bf-aed8-caf0020f05ab}, !- Design Specification Outdoor Air Object Name
  Laboratory,                             !- Standards Building Type
  Lab;                                    !- Standards Space Type

OS:Rendering:Color,
  {80492f06-7c53-4734-9425-05e74081e449}, !- Handle
  Rendering Color 2,                      !- Name
  204,                                    !- Rendering Red Value
  120,                                    !- Rendering Green Value
  230;                                    !- Rendering Blue Value

OS:SpaceType,
  {9188faef-41ca-4e36-a1b9-20fef5297805}, !- Handle
  Laboratory|BlendCirc|DOE Ref 2004|ASHRAE 169-2006-5A, !- Name
  {676243bb-0bb1-4ff0-8435-5b9eda695950}, !- Default Construction Set Name
  ,                                       !- Default Schedule Set Name
  {fb6c99b2-14a8-4916-8907-723c45a3535d}, !- Group Rendering Name
  {3c4b0a96-fe92-4d3c-abcf-cc0a6b6259da}, !- Design Specification Outdoor Air Object Name
  Laboratory,                             !- Standards Building Type
  BlendCirc;                              !- Standards Space Type

OS:Rendering:Color,
  {fb6c99b2-14a8-4916-8907-723c45a3535d}, !- Handle
  Rendering Color 3,                      !- Name
  120,                                    !- Rendering Red Value
  149,                                    !- Rendering Green Value
  230;                                    !- Rendering Blue Value

OS:SpaceType,
  {a466f74f-3aab-44c4-9b08-77de7dc2c29d}, !- Handle
  Laboratory|BlendMisc|DOE Ref 2004|ASHRAE 169-2006-5A, !- Name
  {676243bb-0bb1-4ff0-8435-5b9eda695950}, !- Default Construction Set Name
  ,                                       !- Default Schedule Set Name
  {007bddac-2b95-4819-9c45-6439e31c76b4}, !- Group Rendering Name
  {5265c96f-ddb9-44a7-8ec4-67302f617f31}, !- Design Specification Outdoor Air Object Name
  Laboratory,                             !- Standards Building Type
  BlendMisc;                              !- Standards Space Type

OS:Rendering:Color,
  {007bddac-2b95-4819-9c45-6439e31c76b4}, !- Handle
  Rendering Color 4,                      !- Name
  41,                                     !- Rendering Red Value
  31,                                     !- Rendering Green Value
  169;                                    !- Rendering Blue Value

OS:SpaceType,
  {bf95b371-a58f-419f-bb1d-076446aedede}, !- Handle
  Laboratory|Restroom|DOE Ref 2004|ASHRAE 169-2006-5A, !- Name
  {676243bb-0bb1-4ff0-8435-5b9eda695950}, !- Default Construction Set Name
  {73661483-e7d6-4de0-9f5e-90f440cf2abf}, !- Default Schedule Set Name
  {df11bb8b-cbfa-4d7c-bc79-1a8318260c05}, !- Group Rendering Name
  {da6b4c94-9b5a-40c7-b3d6-9a72e099b08d}, !- Design Specification Outdoor Air Object Name
  Laboratory,                             !- Standards Building Type
  Restroom;                               !- Standards Space Type

OS:Rendering:Color,
  {df11bb8b-cbfa-4d7c-bc79-1a8318260c05}, !- Handle
  Rendering Color 5,                      !- Name
  169,                                    !- Rendering Red Value
  169,                                    !- Rendering Green Value
  31;                                     !- Rendering Blue Value

OS:Schedule:Ruleset,
  {c9913121-18f7-4e0a-a226-0916249d0d58}, !- Handle
  0800|1700|Laboratory|default|hoo,       !- Name
  {60c858ad-8918-4c3a-b9dd-13a70eb74e40}, !- Schedule Type Limits Name
  {2ac5aeb8-5b03-4b26-bdfa-7f8d71d0782c}, !- Default Day Schedule Name
  {3ace7613-bafc-4bc0-bd21-6ee1985c4168}, !- Summer Design Day Schedule Name
  {46388fa0-3a93-4e1c-8ec0-c3566feafca2}; !- Winter Design Day Schedule Name

OS:Schedule:Day,
  {2ac5aeb8-5b03-4b26-bdfa-7f8d71d0782c}, !- Handle
  0800|1700|Laboratory|default|hoo Schedule Week Day, !- Name
  {60c858ad-8918-4c3a-b9dd-13a70eb74e40}, !- Schedule Type Limits Name
  ,                                       !- Interpolate to Timestep
  8,                                      !- Hour 1
  0,                                      !- Minute 1
  0,                                      !- Value Until Time 1
  17,                                     !- Hour 2
  0,                                      !- Minute 2
  1,                                      !- Value Until Time 2
  24,                                     !- Hour 3
  0,                                      !- Minute 3
  0;                                      !- Value Until Time 3

OS:Schedule:Day,
  {bf4de0b2-d842-4abe-8da7-9a750fbd9683}, !- Handle
  Schedule Day 2,                         !- Name
  ,                                       !- Schedule Type Limits Name
  ,                                       !- Interpolate to Timestep
  24,                                     !- Hour 1
  0,                                      !- Minute 1
  0;                                      !- Value Until Time 1

OS:Schedule:Day,
  {46388fa0-3a93-4e1c-8ec0-c3566feafca2}, !- Handle
  0800|1700|Laboratory|default|hoo Winter Design Day, !- Name
  {60c858ad-8918-4c3a-b9dd-13a70eb74e40}, !- Schedule Type Limits Name
  ,                                       !- Interpolate to Timestep
  24,                                     !- Hour 1
  0,                                      !- Minute 1
  0;                                      !- Value Until Time 1

OS:Schedule:Day,
  {e0951759-4735-4d6b-b7da-ff686a652883}, !- Handle
  Schedule Day 3,                         !- Name
  ,                                       !- Schedule Type Limits Name
  ,                                       !- Interpolate to Timestep
  24,                                     !- Hour 1
  0,                                      !- Minute 1
  0;                                      !- Value Until Time 1

OS:Schedule:Day,
  {3ace7613-bafc-4bc0-bd21-6ee1985c4168}, !- Handle
  0800|1700|Laboratory|default|hoo Summer Design Day, !- Name
  {60c858ad-8918-4c3a-b9dd-13a70eb74e40}, !- Schedule Type Limits Name
  ,                                       !- Interpolate to Timestep
  24,                                     !- Hour 1
  0,                                      !- Minute 1
  1;                                      !- Value Until Time 1

OS:DefaultScheduleSet,
  {0a855989-7976-4c76-9ecd-b87d3e85e416}, !- Handle
  Building Hours of Operation,            !- Name
  {c9913121-18f7-4e0a-a226-0916249d0d58}, !- Hours of Operation Schedule Name
  ,                                       !- Number of People Schedule Name
  ,                                       !- People Activity Level Schedule Name
  ,                                       !- Lighting Schedule Name
  ,                                       !- Electric Equipment Schedule Name
  ,                                       !- Gas Equipment Schedule Name
  ,                                       !- Hot Water Equipment Schedule Name
  ,                                       !- Infiltration Schedule Name
  ,                                       !- Steam Equipment Schedule Name
  ;                                       !- Other Equipment Schedule Name

OS:ScheduleTypeLimits,
  {60c858ad-8918-4c3a-b9dd-13a70eb74e40}, !- Handle
  OnOff,                                  !- Name
  0,                                      !- Lower Limit Value {BasedOnField A4}
  1,                                      !- Upper Limit Value {BasedOnField A4}
  Discrete,                               !- Numeric Type
  Availability;                           !- Unit Type

OS:Schedule:Ruleset,
  {799a97bc-f47b-4600-9fc0-36b3d70d0413}, !- Handle
  0800|1700|Laboratory|default|elec_equip, !- Name
  {ebaa774d-989e-4d31-a73c-112f6fab2005}, !- Schedule Type Limits Name
  {61c31bf5-a3d5-4bab-8267-46b111b2c7c5}, !- Default Day Schedule Name
  {b96990b1-9cf3-4c8e-b9a1-72e6911de30a}, !- Summer Design Day Schedule Name
  {b0c5fa22-dc99-4bba-ba80-2a9715727aae}; !- Winter Design Day Schedule Name

OS:ScheduleTypeLimits,
  {ebaa774d-989e-4d31-a73c-112f6fab2005}, !- Handle
  Equipment Schedule Type Limits,         !- Name
  0,                                      !- Lower Limit Value {BasedOnField A4}
  1,                                      !- Upper Limit Value {BasedOnField A4}
  Continuous,                             !- Numeric Type
  Dimensionless;                          !- Unit Type

OS:Schedule:Day,
  {61c31bf5-a3d5-4bab-8267-46b111b2c7c5}, !- Handle
  0800|1700|Laboratory|default|elec_equip |default, !- Name
  {ebaa774d-989e-4d31-a73c-112f6fab2005}, !- Schedule Type Limits Name
  ,                                       !- Interpolate to Timestep
  8,                                      !- Hour 1
  0,                                      !- Minute 1
  0.4,                                    !- Value Until Time 1
  12,                                     !- Hour 2
  0,                                      !- Minute 2
  0.9,                                    !- Value Until Time 2
  13,                                     !- Hour 3
  0,                                      !- Minute 3
  0.8,                                    !- Value Until Time 3
  16,                                     !- Hour 4
  0,                                      !- Minute 4
  0.9,                                    !- Value Until Time 4
  16,                                     !- Hour 5
  30,                                     !- Minute 5
  0.8,                                    !- Value Until Time 5
  17,                                     !- Hour 6
  0,                                      !- Minute 6
  0.7,                                    !- Value Until Time 6
  17,                                     !- Hour 7
  30,                                     !- Minute 7
  0.6,                                    !- Value Until Time 7
  18,                                     !- Hour 8
  0,                                      !- Minute 8
  0.5,                                    !- Value Until Time 8
  18,                                     !- Hour 9
  30,                                     !- Minute 9
  0.49,                                   !- Value Until Time 9
  19,                                     !- Hour 10
  0,                                      !- Minute 10
  0.48,                                   !- Value Until Time 10
  19,                                     !- Hour 11
  30,                                     !- Minute 11
  0.47,                                   !- Value Until Time 11
  20,                                     !- Hour 12
  0,                                      !- Minute 12
  0.46,                                   !- Value Until Time 12
  20,                                     !- Hour 13
  30,                                     !- Minute 13
  0.45,                                   !- Value Until Time 13
  21,                                     !- Hour 14
  0,                                      !- Minute 14
  0.44,                                   !- Value Until Time 14
  21,                                     !- Hour 15
  30,                                     !- Minute 15
  0.43,                                   !- Value Until Time 15
  22,                                     !- Hour 16
  0,                                      !- Minute 16
  0.42,                                   !- Value Until Time 16
  22,                                     !- Hour 17
  30,                                     !- Minute 17
  0.41,                                   !- Value Until Time 17
  24,                                     !- Hour 18
  0,                                      !- Minute 18
  0.4;                                    !- Value Until Time 18

OS:Schedule:Day,
  {b96990b1-9cf3-4c8e-b9a1-72e6911de30a}, !- Handle
  0800|1700|Laboratory|default|elec_equip Summer Design Day, !- Name
  {ebaa774d-989e-4d31-a73c-112f6fab2005}, !- Schedule Type Limits Name
  ,                                       !- Interpolate to Timestep
  24,                                     !- Hour 1
  0,                                      !- Minute 1
  1;                                      !- Value Until Time 1

OS:Schedule:Day,
  {b0c5fa22-dc99-4bba-ba80-2a9715727aae}, !- Handle
  0800|1700|Laboratory|default|elec_equip Winter Design Day, !- Name
  {ebaa774d-989e-4d31-a73c-112f6fab2005}, !- Schedule Type Limits Name
  ,                                       !- Interpolate to Timestep
  24,                                     !- Hour 1
  0,                                      !- Minute 1
  0.4;                                    !- Value Until Time 1

OS:Schedule:Rule,
  {d43a9dbd-665a-4273-9012-b647dbf16dc3}, !- Handle
  0800|1700|Laboratory|default|elec_equip |1/1-12/31|Sun Rule, !- Name
  {799a97bc-f47b-4600-9fc0-36b3d70d0413}, !- Schedule Ruleset Name
  0,                                      !- Rule Order
  {0d9dd4a9-97d7-4335-aa97-207acd38f91f}, !- Day Schedule Name
  Yes,                                    !- Apply Sunday
  ,                                       !- Apply Monday
  ,                                       !- Apply Tuesday
  ,                                       !- Apply Wednesday
  ,                                       !- Apply Thursday
  ,                                       !- Apply Friday
  ,                                       !- Apply Saturday
  ,                                       !- Apply Holiday
  DateRange,                              !- Date Specification Type
  1,                                      !- Start Month
  1,                                      !- Start Day
  12,                                     !- End Month
  31;                                     !- End Day

OS:Schedule:Day,
  {0d9dd4a9-97d7-4335-aa97-207acd38f91f}, !- Handle
  0800|1700|Laboratory|default|elec_equip |1/1-12/31|Sun, !- Name
  {ebaa774d-989e-4d31-a73c-112f6fab2005}, !- Schedule Type Limits Name
  ,                                       !- Interpolate to Timestep
  24,                                     !- Hour 1
  0,                                      !- Minute 1
  0.3;                                    !- Value Until Time 1

OS:Schedule:Rule,
  {06d5379d-adf4-4069-9346-2f0f61ce4d29}, !- Handle
  0800|1700|Laboratory|default|elec_equip |1/1-12/31|Sat Rule, !- Name
  {799a97bc-f47b-4600-9fc0-36b3d70d0413}, !- Schedule Ruleset Name
  1,                                      !- Rule Order
  {8db9c737-df76-48d1-a1e6-781f05094827}, !- Day Schedule Name
  ,                                       !- Apply Sunday
  ,                                       !- Apply Monday
  ,                                       !- Apply Tuesday
  ,                                       !- Apply Wednesday
  ,                                       !- Apply Thursday
  ,                                       !- Apply Friday
  Yes,                                    !- Apply Saturday
  ,                                       !- Apply Holiday
  DateRange,                              !- Date Specification Type
  1,                                      !- Start Month
  1,                                      !- Start Day
  12,                                     !- End Month
  31;                                     !- End Day

OS:Schedule:Day,
  {8db9c737-df76-48d1-a1e6-781f05094827}, !- Handle
  0800|1700|Laboratory|default|elec_equip |1/1-12/31|Sat, !- Name
  {ebaa774d-989e-4d31-a73c-112f6fab2005}, !- Schedule Type Limits Name
  ,                                       !- Interpolate to Timestep
  5,                                      !- Hour 1
  0,                                      !- Minute 1
  0.3,                                    !- Value Until Time 1
  5,                                      !- Hour 2
  30,                                     !- Minute 2
  0.33,                                   !- Value Until Time 2
  6,                                      !- Hour 3
  0,                                      !- Minute 3
  0.37,                                   !- Value Until Time 3
  6,                                      !- Hour 4
  30,                                     !- Minute 4
  0.4,                                    !- Value Until Time 4
  7,                                      !- Hour 5
  0,                                      !- Minute 5
  0.43,                                   !- Value Until Time 5
  7,                                      !- Hour 6
  30,                                     !- Minute 6
  0.47,                                   !- Value Until Time 6
  13,                                     !- Hour 7
  0,                                      !- Minute 7
  0.5,                                    !- Value Until Time 7
  13,                                     !- Hour 8
  30,                                     !- Minute 8
  0.48,                                   !- Value Until Time 8
  14,                                     !- Hour 9
  0,                                      !- Minute 9
  0.46,                                   !- Value Until Time 9
  14,                                     !- Hour 10
  30,                                     !- Minute 10
  0.44,                                   !- Value Until Time 10
  15,                                     !- Hour 11
  0,                                      !- Minute 11
  0.42,                                   !- Value Until Time 11
  15,                                     !- Hour 12
  30,                                     !- Minute 12
  0.4,                                    !- Value Until Time 12
  16,                                     !- Hour 13
  0,                                      !- Minute 13
  0.38,                                   !- Value Until Time 13
  16,                                     !- Hour 14
  30,                                     !- Minute 14
  0.36,                                   !- Value Until Time 14
  17,                                     !- Hour 15
  0,                                      !- Minute 15
  0.34,                                   !- Value Until Time 15
  17,                                     !- Hour 16
  30,                                     !- Minute 16
  0.32,                                   !- Value Until Time 16
  24,                                     !- Hour 17
  0,                                      !- Minute 17
  0.3;                                    !- Value Until Time 17

OS:Schedule:Ruleset,
  {9dc1c4bd-65b9-4d9c-ba05-39b871984e86}, !- Handle
  0800|1700|Laboratory|default|htg_setpoint, !- Name
  {8da6cfbd-5edf-4b2f-a16f-905713fc513c}, !- Schedule Type Limits Name
  {8720dfac-2ee9-4367-9dc8-70c4c26cbc3d}, !- Default Day Schedule Name
  {3fea6e10-4b65-410e-9644-19093248dec9}, !- Summer Design Day Schedule Name
  {077ce1b5-5217-4401-8e36-5320cf6d796e}; !- Winter Design Day Schedule Name

OS:ScheduleTypeLimits,
  {8da6cfbd-5edf-4b2f-a16f-905713fc513c}, !- Handle
  Thermostat Heating Setpoint Schedule Type Limits, !- Name
  0,                                      !- Lower Limit Value {BasedOnField A4}
  100,                                    !- Upper Limit Value {BasedOnField A4}
  Continuous,                             !- Numeric Type
  Temperature;                            !- Unit Type

OS:Schedule:Day,
  {8720dfac-2ee9-4367-9dc8-70c4c26cbc3d}, !- Handle
  0800|1700|Laboratory|default|htg_setpoint |default, !- Name
  {8da6cfbd-5edf-4b2f-a16f-905713fc513c}, !- Schedule Type Limits Name
  ,                                       !- Interpolate to Timestep
  24,                                     !- Hour 1
  0,                                      !- Minute 1
  21.0000000000001;                       !- Value Until Time 1

OS:Schedule:Day,
  {3fea6e10-4b65-410e-9644-19093248dec9}, !- Handle
  0800|1700|Laboratory|default|htg_setpoint Summer Design Day, !- Name
  {8da6cfbd-5edf-4b2f-a16f-905713fc513c}, !- Schedule Type Limits Name
  ,                                       !- Interpolate to Timestep
  24,                                     !- Hour 1
  0,                                      !- Minute 1
  21.0000000000001;                       !- Value Until Time 1

OS:Schedule:Day,
  {077ce1b5-5217-4401-8e36-5320cf6d796e}, !- Handle
  0800|1700|Laboratory|default|htg_setpoint Winter Design Day, !- Name
  {8da6cfbd-5edf-4b2f-a16f-905713fc513c}, !- Schedule Type Limits Name
  ,                                       !- Interpolate to Timestep
  24,                                     !- Hour 1
  0,                                      !- Minute 1
  21.0000000000001;                       !- Value Until Time 1

OS:Schedule:Rule,
  {9755ade8-5bc1-4ea8-a0ce-0aed0ea2aa3a}, !- Handle
  0800|1700|Laboratory|default|htg_setpoint |1/1-12/31|Sun Rule, !- Name
  {9dc1c4bd-65b9-4d9c-ba05-39b871984e86}, !- Schedule Ruleset Name
  0,                                      !- Rule Order
  {dd5b11e5-41cb-42d1-8ee7-2e4e8616af14}, !- Day Schedule Name
  Yes,                                    !- Apply Sunday
  ,                                       !- Apply Monday
  ,                                       !- Apply Tuesday
  ,                                       !- Apply Wednesday
  ,                                       !- Apply Thursday
  ,                                       !- Apply Friday
  ,                                       !- Apply Saturday
  ,                                       !- Apply Holiday
  DateRange,                              !- Date Specification Type