
OS:Version,
  {a0ab154e-7745-4a54-ab80-ed8d21a16484}, !- Handle
  1.5.5;                                  !- Version Identifier

OS:ClimateZones,
  {135edfab-17e7-40db-a436-27d385a8cd6d}, !- Handle
  ,                                       !- Active Institution
  ,                                       !- Active Year
  ASHRAE,                                 !- Climate Zone Institution Name 1
  ANSI/ASHRAE Standard 169,               !- Climate Zone Document Name 1
  2006,                                   !- Climate Zone Document Year 1
  ,                                       !- Climate Zone Value 1
  CEC,                                    !- Climate Zone Institution Name 2
  California Climate Zone Descriptions,   !- Climate Zone Document Name 2
  1995,                                   !- Climate Zone Document Year 2
  ;                                       !- Climate Zone Value 2

OS:YearDescription,
  {513d8dda-86cb-442a-b01c-1f7f0e0ac70e}; !- Handle

OS:RadianceParameters,
  {270a96f1-3c86-4b75-a667-cdf22790e2c8}, !- Handle
  1,                                      !- Accumulated Rays per Record
  0,                                      !- Direct Threshold
  1,                                      !- Direct Certainty
  1,                                      !- Direct Jitter
  1,                                      !- Direct Pretest
  6,                                      !- Ambient Bounces VMX
  2,                                      !- Ambient Bounces DMX
  4050,                                   !- Ambient Divisions VMX
  512,                                    !- Ambient Divisions DMX
  256,                                    !- Ambient Supersamples
  0.001,                                  !- Limit Weight VMX
  0.001,                                  !- Limit Weight DMX
  500,                                    !- Klems Sampling Density
  146;                                    !- Sky Discretization Resolution

OS:SimulationControl,
  {2c487a4c-bac9-4ac5-b669-1e49d9da7c2b}, !- Handle
  ,                                       !- Do Zone Sizing Calculation
  ,                                       !- Do System Sizing Calculation
  ,                                       !- Do Plant Sizing Calculation
  No,                                     !- Run Simulation for Sizing Periods
  ,                                       !- Run Simulation for Weather File Run Periods
  0.04,                                   !- Loads Convergence Tolerance Value
  ,                                       !- Temperature Convergence Tolerance Value {deltaC}
  ,                                       !- Solar Distribution
  ,                                       !- Maximum Number of Warmup Days
  2;                                      !- Minimum Number of Warmup Days

OS:Sizing:Parameters,
  {dde5af6f-7923-4600-a28a-7556673a0266}, !- Handle
  1.25,                                   !- Heating Sizing Factor
  1.15;                                   !- Cooling Sizing Factor

OS:ProgramControl,
  {05027a99-f2b3-4aeb-afc6-1425fbb4371d}; !- Handle

OS:Timestep,
  {4ebc9f1e-4707-402e-9844-67eb1ffbd522}, !- Handle
  2;                                      !- Number of Timesteps per Hour

OS:OutputControl:ReportingTolerances,
  {65797aa2-06a9-45fe-b69d-bc6e060399d3}; !- Handle

OS:ConvergenceLimits,
  {9fc11aba-8822-4f3d-970c-46391ba4040d}; !- Handle

OS:ShadowCalculation,
  {ca758bea-4416-4626-9bba-3d8795c79bd6}, !- Handle
  7,                                      !- Calculation Frequency
  15000;                                  !- Maximum Figures in Shadow Overlap Calculations

OS:SurfaceConvectionAlgorithm:Inside,
  {aaabfc36-718a-4ab0-b622-f186ebb45230}, !- Handle
  TARP;                                   !- Algorithm

OS:SurfaceConvectionAlgorithm:Outside,
  {9a0a9f6f-4bbd-4b12-a121-9492a1fcd7d6}, !- Handle
  DOE-2;                                  !- Algorithm

OS:HeatBalanceAlgorithm,
  {9d93e563-e1e0-46d7-9e39-d1c8aceb7212}, !- Handle
  ConductionTransferFunction,             !- Algorithm
  200;                                    !- Surface Temperature Upper Limit {F}

OS:ZoneAirHeatBalanceAlgorithm,
  {8520d93e-310f-4696-9bcd-36228bfdd743}, !- Handle
  AnalyticalSolution;                     !- Algorithm

OS:ZoneAirContaminantBalance,
  {eb5fc3ae-fb22-4160-8fcb-3e3b22b000d3}; !- Handle

OS:ZoneCapacitanceMultiplier:ResearchSpecial,
  {4020ce4f-5a7a-4849-8028-8305d7b751b1}, !- Handle
  ,                                       !- Temperature Capacity Multiplier
  ,                                       !- Humidity Capacity Multiplier
  ;                                       !- Carbon Dioxide Capacity Multiplier

OS:RunPeriod,
  {28df894d-6af9-4fb8-8f56-df1753344aa3}, !- Handle
  Run Period 1,                           !- Name
  1,                                      !- Begin Month
  1,                                      !- Begin Day of Month
  12,                                     !- End Month
  31,                                     !- End Day of Month
  ,                                       !- Use Weather File Holidays and Special Days
  ,                                       !- Use Weather File Daylight Saving Period
  ,                                       !- Apply Weekend Holiday Rule
  ,                                       !- Use Weather File Rain Indicators
  ,                                       !- Use Weather File Snow Indicators
  ;                                       !- Number of Times Runperiod to be Repeated

OS:Building,
  {bf305633-c5a1-4881-9edf-ca5e1a8e1274}, !- Handle
  Building 1,                             !- Name
  ,                                       !- Building Sector Type
  ,                                       !- North Axis {deg}
  ,                                       !- Nominal Floor to Floor Height {m}
  ,                                       !- Space Type Name
  ,                                       !- Default Construction Set Name
  {402f9645-9846-4f26-87a1-efd9d204760b}, !- Default Schedule Set Name
  ,                                       !- Standards Number of Stories
  ,                                       !- Standards Number of Above Ground Stories
  Laboratory;                             !- Standards Building Type

OS:LifeCycleCost:Parameters,
  {231cf8a0-f0e7-4251-a99f-11f0d464e661}, !- Handle
  FEMP,                                   !- Analysis Type
  ,                                       !- Discounting Convention
  ,                                       !- Inflation Approach
  ,                                       !- Real Discount Rate
  ,                                       !- Nominal Discount Rate
  ,                                       !- Inflation
  ,                                       !- Base Date Month
  ,                                       !- Base Date Year
  ,                                       !- Service Date Month
  ,                                       !- Service Date Year
  ,                                       !- Length of Study Period in Years
  ,                                       !- Tax Rate
  ,                                       !- Depreciation Method
  Yes;                                    !- Use NIST Fuel Escalation Rates

OS:Facility,
  {3ba8e45b-b833-44eb-a723-ea6c3946dc96}; !- Handle

OS:SpaceType,
  {e29b9521-0068-48c9-b665-859a97b5185d}, !- Handle
  Laboratory|BlendOff|DOE Ref 1980-2004|ASHRAE 169-2006-5A, !- Name
  {fb39eaef-3fde-4f45-aa3f-9b84185f7700}, !- Default Construction Set Name
  ,                                       !- Default Schedule Set Name
  {b68de78d-a2b0-4f83-aec0-5186c3477f26}, !- Group Rendering Name
  {34bca395-d15c-4239-b69a-91eb16235ef4}, !- Design Specification Outdoor Air Object Name
  Laboratory,                             !- Standards Building Type
  BlendOff;                               !- Standards Space Type

OS:Rendering:Color,
  {b68de78d-a2b0-4f83-aec0-5186c3477f26}, !- Handle
  Rendering Color 1,                      !- Name
  120,                                    !- Rendering Red Value
  230,                                    !- Rendering Green Value
  199;                                    !- Rendering Blue Value

OS:SpaceType,
  {2bb788bf-d565-4d3e-85be-3697c71bec6b}, !- Handle
  Laboratory|Lab|DOE Ref 1980-2004|ASHRAE 169-2006-5A, !- Name
  {fb39eaef-3fde-4f45-aa3f-9b84185f7700}, !- Default Construction Set Name
  {227ad52d-1c74-49f8-94e6-d6d6823e3944}, !- Default Schedule Set Name
  {b7be121d-3e0b-4272-91d6-9f7a41f87ca5}, !- Group Rendering Name
  {ce803c14-faed-4d6a-b706-5b704780727d}, !- Design Specification Outdoor Air Object Name
  Laboratory,                             !- Standards Building Type
  Lab;                                    !- Standards Space Type

OS:Rendering:Color,
  {b7be121d-3e0b-4272-91d6-9f7a41f87ca5}, !- Handle
  Rendering Color 2,                      !- Name
  204,                                    !- Rendering Red Value
  120,                                    !- Rendering Green Value
  230;                                    !- Rendering Blue Value

OS:SpaceType,
  {e87cd9cf-292b-4500-9501-0782d4fffcff}, !- Handle
  Laboratory|BlendCirc|DOE Ref 1980-2004|ASHRAE 169-2006-5A, !- Name
  {fb39eaef-3fde-4f45-aa3f-9b84185f7700}, !- Default Construction Set Name
  ,                                       !- Default Schedule Set Name
  {adb2a1de-3f79-4317-bbbc-dfb99d38e0c9}, !- Group Rendering Name
  {f62ba051-6274-47bf-ba73-12176a7d3f7b}, !- Design Specification Outdoor Air Object Name
  Laboratory,                             !- Standards Building Type
  BlendCirc;                              !- Standards Space Type

OS:Rendering:Color,
  {adb2a1de-3f79-4317-bbbc-dfb99d38e0c9}, !- Handle
  Rendering Color 3,                      !- Name
  120,                                    !- Rendering Red Value
  149,                                    !- Rendering Green Value
  230;                                    !- Rendering Blue Value

OS:SpaceType,
  {7ea35cc8-0b36-4d3c-8c2c-dce2f2cfc266}, !- Handle
  Laboratory|BlendMisc|DOE Ref 1980-2004|ASHRAE 169-2006-5A, !- Name
  {fb39eaef-3fde-4f45-aa3f-9b84185f7700}, !- Default Construction Set Name
  ,                                       !- Default Schedule Set Name
  {ef28635f-9f6b-4e0f-ba50-db07fc77cdb5}, !- Group Rendering Name
  {381d7f82-d488-4f22-b886-6ce74322ea03}, !- Design Specification Outdoor Air Object Name
  Laboratory,                             !- Standards Building Type
  BlendMisc;                              !- Standards Space Type

OS:Rendering:Color,
  {ef28635f-9f6b-4e0f-ba50-db07fc77cdb5}, !- Handle
  Rendering Color 4,                      !- Name
  41,                                     !- Rendering Red Value
  31,                                     !- Rendering Green Value
  169;                                    !- Rendering Blue Value

OS:SpaceType,
  {8b6a2647-df73-4813-bc89-64ae8b792ab5}, !- Handle
  Laboratory|Restroom|DOE Ref 1980-2004|ASHRAE 169-2006-5A, !- Name
  {fb39eaef-3fde-4f45-aa3f-9b84185f7700}, !- Default Construction Set Name
  {652b52a0-6dfd-47bc-a572-c6bdbf728611}, !- Default Schedule Set Name
  {8c35c055-72d8-4df3-8957-f1f2f2f49991}, !- Group Rendering Name
  {d8e2e52e-a951-4e8c-b9f6-9d5292075371}, !- Design Specification Outdoor Air Object Name
  Laboratory,                             !- Standards Building Type
  Restroom;                               !- Standards Space Type

OS:Rendering:Color,
  {8c35c055-72d8-4df3-8957-f1f2f2f49991}, !- Handle
  Rendering Color 5,                      !- Name
  169,                                    !- Rendering Red Value
  169,                                    !- Rendering Green Value
  31;                                     !- Rendering Blue Value

OS:Schedule:Ruleset,
  {7b6ece5e-bde1-4414-be1c-721a5bf050e4}, !- Handle
  0800|1700|Laboratory|default|hoo,       !- Name
  {7d5f92a1-bfca-498f-8e1b-8bbaca8cfdc7}, !- Schedule Type Limits Name
  {65aa3d23-aaec-43e7-b49c-f6ca1ab69121}, !- Default Day Schedule Name
  {47fdf75f-50d5-4023-b243-b2f77466b3f5}, !- Summer Design Day Schedule Name
  {5fb40a61-74f9-4631-b8df-54eb5b30dad5}; !- Winter Design Day Schedule Name

OS:Schedule:Day,
  {65aa3d23-aaec-43e7-b49c-f6ca1ab69121}, !- Handle
  0800|1700|Laboratory|default|hoo Schedule Week Day, !- Name
  {7d5f92a1-bfca-498f-8e1b-8bbaca8cfdc7}, !- Schedule Type Limits Name
  ,                                       !- Interpolate to Timestep
  8,                                      !- Hour 1
  0,                                      !- Minute 1
  0,                                      !- Value Until Time 1
  17,                                     !- Hour 2
  0,                                      !- Minute 2
  1,                                      !- Value Until Time 2
  24,                                     !- Hour 3
  0,                                      !- Minute 3
  0;                                      !- Value Until Time 3

OS:Schedule:Day,
  {9b99f12d-0813-4816-9ecc-65ee4f853692}, !- Handle
  Schedule Day 2,                         !- Name
  ,                                       !- Schedule Type Limits Name
  ,                                       !- Interpolate to Timestep
  24,                                     !- Hour 1
  0,                                      !- Minute 1
  0;                                      !- Value Until Time 1

OS:Schedule:Day,
  {5fb40a61-74f9-4631-b8df-54eb5b30dad5}, !- Handle
  0800|1700|Laboratory|default|hoo Winter Design Day, !- Name
  {7d5f92a1-bfca-498f-8e1b-8bbaca8cfdc7}, !- Schedule Type Limits Name
  ,                                       !- Interpolate to Timestep
  24,                                     !- Hour 1
  0,                                      !- Minute 1
  0;                                      !- Value Until Time 1

OS:Schedule:Day,
  {307df6ea-17a8-4dd7-8ca3-957c2e439004}, !- Handle
  Schedule Day 3,                         !- Name
  ,                                       !- Schedule Type Limits Name
  ,                                       !- Interpolate to Timestep
  24,                                     !- Hour 1
  0,                                      !- Minute 1
  0;                                      !- Value Until Time 1

OS:Schedule:Day,
  {47fdf75f-50d5-4023-b243-b2f77466b3f5}, !- Handle
  0800|1700|Laboratory|default|hoo Summer Design Day, !- Name
  {7d5f92a1-bfca-498f-8e1b-8bbaca8cfdc7}, !- Schedule Type Limits Name
  ,                                       !- Interpolate to Timestep
  24,                                     !- Hour 1
  0,                                      !- Minute 1
  1;                                      !- Value Until Time 1

OS:DefaultScheduleSet,
  {402f9645-9846-4f26-87a1-efd9d204760b}, !- Handle
  Building Hours of Operation,            !- Name
  {7b6ece5e-bde1-4414-be1c-721a5bf050e4}, !- Hours of Operation Schedule Name
  ,                                       !- Number of People Schedule Name
  ,                                       !- People Activity Level Schedule Name
  ,                                       !- Lighting Schedule Name
  ,                                       !- Electric Equipment Schedule Name
  ,                                       !- Gas Equipment Schedule Name
  ,                                       !- Hot Water Equipment Schedule Name
  ,                                       !- Infiltration Schedule Name
  ,                                       !- Steam Equipment Schedule Name
  ;                                       !- Other Equipment Schedule Name

OS:ScheduleTypeLimits,
  {7d5f92a1-bfca-498f-8e1b-8bbaca8cfdc7}, !- Handle
  OnOff,                                  !- Name
  0,                                      !- Lower Limit Value {BasedOnField A4}
  1,                                      !- Upper Limit Value {BasedOnField A4}
  Discrete,                               !- Numeric Type
  Availability;                           !- Unit Type

OS:Schedule:Ruleset,
  {24515164-35cc-4141-b3ed-1e1d8ce7158a}, !- Handle
  0800|1700|Laboratory|default|htg_setpoint, !- Name
  {f4a4e51f-b602-4d60-922d-f4f425d42fb2}, !- Schedule Type Limits Name
  {b32dc2de-3aee-4f54-8b41-04619e31beaa}, !- Default Day Schedule Name
  {786cbb48-8884-41ad-bc4c-2795ae9fe61c}, !- Summer Design Day Schedule Name
  {d8504862-6653-49e8-8e83-944c38175de8}; !- Winter Design Day Schedule Name

OS:ScheduleTypeLimits,
  {f4a4e51f-b602-4d60-922d-f4f425d42fb2}, !- Handle
  Thermostat Heating Setpoint Schedule Type Limits, !- Name
  0,                                      !- Lower Limit Value {BasedOnField A4}
  100,                                    !- Upper Limit Value {BasedOnField A4}
  Continuous,                             !- Numeric Type
  Temperature;                            !- Unit Type

OS:Schedule:Day,
  {b32dc2de-3aee-4f54-8b41-04619e31beaa}, !- Handle
  0800|1700|Laboratory|default|htg_setpoint |default, !- Name
  {f4a4e51f-b602-4d60-922d-f4f425d42fb2}, !- Schedule Type Limits Name
  ,                                       !- Interpolate to Timestep
  24,                                     !- Hour 1
  0,                                      !- Minute 1
  21.0000000000001;                       !- Value Until Time 1

OS:Schedule:Day,
  {786cbb48-8884-41ad-bc4c-2795ae9fe61c}, !- Handle
  0800|1700|Laboratory|default|htg_setpoint Summer Design Day, !- Name
  {f4a4e51f-b602-4d60-922d-f4f425d42fb2}, !- Schedule Type Limits Name
  ,                                       !- Interpolate to Timestep
  24,                                     !- Hour 1
  0,                                      !- Minute 1
  21.0000000000001;                       !- Value Until Time 1

OS:Schedule:Day,
  {d8504862-6653-49e8-8e83-944c38175de8}, !- Handle
  0800|1700|Laboratory|default|htg_setpoint Winter Design Day, !- Name
  {f4a4e51f-b602-4d60-922d-f4f425d42fb2}, !- Schedule Type Limits Name
  ,                                       !- Interpolate to Timestep
  24,                                     !- Hour 1
  0,                                      !- Minute 1
  21.0000000000001;                       !- Value Until Time 1

OS:Schedule:Rule,
  {23706ddf-73c7-4e73-926e-ddb176087af9}, !- Handle
  0800|1700|Laboratory|default|htg_setpoint |1/1-12/31|Sun Rule, !- Name
  {24515164-35cc-4141-b3ed-1e1d8ce7158a}, !- Schedule Ruleset Name
  0,                                      !- Rule Order
  {d7b6eaa4-6d1f-4d9b-b1ef-257b1b4fb073}, !- Day Schedule Name
  Yes,                                    !- Apply Sunday
  ,                                       !- Apply Monday
  ,                                       !- Apply Tuesday
  ,                                       !- Apply Wednesday
  ,                                       !- Apply Thursday
  ,                                       !- Apply Friday
  ,                                       !- Apply Saturday
  ,                                       !- Apply Holiday
  DateRange,                              !- Date Specification Type
  1,                                      !- Start Month
  1,                                      !- Start Day
  12,                                     !- End Month
  31;                                     !- End Day

OS:Schedule:Day,
  {d7b6eaa4-6d1f-4d9b-b1ef-257b1b4fb073}, !- Handle
  0800|1700|Laboratory|default|htg_setpoint |1/1-12/31|Sun, !- Name
  {f4a4e51f-b602-4d60-922d-f4f425d42fb2}, !- Schedule Type Limits Name
  ,                                       !- Interpolate to Timestep
  24,                                     !- Hour 1
  0,                                      !- Minute 1
  21.0000000000001;                       !- Value Until Time 1

OS:Schedule:Rule,
  {7b2f608b-d86e-45b5-8ed7-5def416b61c0}, !- Handle
  0800|1700|Laboratory|default|htg_setpoint |1/1-12/31|Sat Rule, !- Name
  {24515164-35cc-4141-b3ed-1e1d8ce7158a}, !- Schedule Ruleset Name
  1,                                      !- Rule Order
  {8377a7ca-5f98-4f55-8416-42729d7de3b7}, !- Day Schedule Name
  ,                                       !- Apply Sunday
  ,                                       !- Apply Monday
  ,                                       !- Apply Tuesday
  ,                                       !- Apply Wednesday
  ,                                       !- Apply Thursday
  ,                                       !- Apply Friday
  Yes,                                    !- Apply Saturday
  ,                                       !- Apply Holiday
  DateRange,                              !- Date Specification Type
  1,                                      !- Start Month
  1,                                      !- Start Day
  12,                                     !- End Month
  31;                                     !- End Day

OS:Schedule:Day,
  {8377a7ca-5f98-4f55-8416-42729d7de3b7}, !- Handle
  0800|1700|Laboratory|default|htg_setpoint |1/1-12/31|Sat, !- Name
  {f4a4e51f-b602-4d60-922d-f4f425d42fb2}, !- Schedule Type Limits Name
  ,                                       !- Interpolate to Timestep
  24,                                     !- Hour 1
  0,                                      !- Minute 1
  21.0000000000001;                       !- Value Until Time 1

OS:Schedule:Ruleset,
  {cb6478e3-5f6f-4777-be2a-70dd63746378}, !- Handle
  0800|1700|Laboratory|default|clothing,  !- Name
  {51d4eb8d-d197-478c-b3bf-3c307c6c770b}, !- Schedule Type Limits Name
  {9a6d5929-0afa-4cae-be38-333204180dbd}, !- Default Day Schedule Name
  {5d9eb9ee-f0f3-4991-abeb-a9a26a5fb349}, !- Summer Design Day Schedule Name
  {65a46fb9-c070-4d83-b0e7-76e9cc58c61a}; !- Winter Design Day Schedule Name

OS:ScheduleTypeLimits,
  {51d4eb8d-d197-478c-b3bf-3c307c6c770b}, !- Handle
  Dimensionless Schedule Type Limits,     !- Name
  ,                                       !- Lower Limit Value {BasedOnField A4}
  ,                                       !- Upper Limit Value {BasedOnField A4}
  Continuous,                             !- Numeric Type
  Dimensionless;                          !- Unit Type

OS:Schedule:Day,
  {9a6d5929-0afa-4cae-be38-333204180dbd}, !- Handle
  0800|1700|Laboratory|default|clothing |default, !- Name
  {51d4eb8d-d197-478c-b3bf-3c307c6c770b}, !- Schedule Type Limits Name
  ,                                       !- Interpolate to Timestep
  24,                                     !- Hour 1
  0,                                      !- Minute 1
  0.9;                                    !- Value Until Time 1

OS:Schedule:Day,
  {5d9eb9ee-f0f3-4991-abeb-a9a26a5fb349}, !- Handle
  0800|1700|Laboratory|default|clothing Summer Design Day, !- Name
  {51d4eb8d-d197-478c-b3bf-3c307c6c770b}, !- Schedule Type Limits Name
  ,                                       !- Interpolate to Timestep
  24,                                     !- Hour 1
  0,                                      !- Minute 1
  0.9;                                    !- Value Until Time 1

OS:Schedule:Day,
  {65a46fb9-c070-4d83-b0e7-76e9cc58c61a}, !- Handle
  0800|1700|Laboratory|default|clothing Winter Design Day, !- Name
  {51d4eb8d-d197-478c-b3bf-3c307c6c770b}, !- Schedule Type Limits Name
  ,                                       !- Interpolate to Timestep
  24,                                     !- Hour 1
  0,                                      !- Minute 1
  0.9;                                    !- Value Until Time 1

OS:Schedule:Rule,
  {9ea8473a-4194-4a17-a8bf-e5c6e9750ffc}, !- Handle
  0800|1700|Laboratory|default|clothing |7/1-9/30|Mon/Tue/Wed/Thu/Fri/Sat/Sun Rule, !- Name
  {cb6478e3-5f6f-4777-be2a-70dd63746378}, !- Schedule Ruleset Name
  0,                                      !- Rule Order
  {561e8c5a-5b9c-46a1-9984-e795cb381f0a}, !- Day Schedule Name
  Yes,                                    !- Apply Sunday
  Yes,                                    !- Apply Monday
  Yes,                                    !- Apply Tuesday
  Yes,                                    !- Apply Wednesday
  Yes,                                    !- Apply Thursday
  Yes,                                    !- Apply Friday
  Yes,                                    !- Apply Saturday
  ,                                       !- Apply Holiday
  DateRange,                              !- Date Specification Type
  7,                                      !- Start Month
  1,                                      !- Start Day
  9,                                      !- End Month
  30;                                     !- End Day

OS:Schedule:Day,
  {561e8c5a-5b9c-46a1-9984-e795cb381f0a}, !- Handle
  0800|1700|Laboratory|default|clothing |7/1-9/30|Mon/Tue/Wed/Thu/Fri/Sat/Sun, !- Name
  {51d4eb8d-d197-478c-b3bf-3c307c6c770b}, !- Schedule Type Limits Name
  ,                                       !- Interpolate to Timestep
  24,                                     !- Hour 1
  0,                                      !- Minute 1
  0.7;                                    !- Value Until Time 1

OS:Schedule:Rule,
  {ade869b8-1801-40f5-86dc-04778ce273d3}, !- Handle
  0800|1700|Laboratory|default|clothing |12/1-3/31|Mon/Tue/Wed/Thu/Fri/Sat/Sun Rule, !- Name
  {cb6478e3-5f6f-4777-be2a-70dd63746378}, !- Schedule Ruleset Name
  1,                                      !- Rule Order
  {e6b1b11f-bb27-42cd-ae51-cd724dcdf845}, !- Day Schedule Name
  Yes,                                    !- Apply Sunday
  Yes,                                    !- Apply Monday
  Yes,                                    !- Apply Tuesday
  Yes,                                    !- Apply Wednesday
  Yes,                                    !- Apply Thursday
  Yes,                                    !- Apply Friday
  Yes,                                    !- Apply Saturday
  ,                                       !- Apply Holiday
  DateRange,                              !- Date Specification Type
  12,                                     !- Start Month
  1,                                      !- Start Day
  3,                                      !- End Month
  31;                                     !- End Day

OS:Schedule:Day,
  {e6b1b11f-bb27-42cd-ae51-cd724dcdf845}, !- Handle
  0800|1700|Laboratory|default|clothing |12/1-3/31|Mon/Tue/Wed/Thu/Fri/Sat/Sun, !- Name
  {51d4eb8d-d197-478c-b3bf-3c307c6c770b}, !- Schedule Type Limits Name
  ,                                       !- Interpolate to Timestep
  24,                                     !- Hour 1
  0,                                      !- Minute 1
  1.3;                                    !- Value Until Time 1

OS:Schedule:Ruleset,
  {57538673-69f8-4e28-97af-821bd5c92387}, !- Handle
  0800|1700|Laboratory|default|air_velocity, !- Name
  {51d4eb8d-d197-478c-b3bf-3c307c6c770b}, !- Schedule Type Limits Name
  {42e4ff9a-a978-4a5b-95a2-794ce581a211}, !- Default Day Schedule Name
  {4271332a-3968-40e1-8f6f-abb956e6f907}, !- Summer Design Day Schedule Name
  {7174e6cf-c328-4235-b816-9b79d8b0d202}; !- Winter Design Day Schedule Name

OS:Schedule:Day,
  {42e4ff9a-a978-4a5b-95a2-794ce581a211}, !- Handle
  0800|1700|Laboratory|default|air_velocity |default, !- Name
  {51d4eb8d-d197-478c-b3bf-3c307c6c770b}, !- Schedule Type Limits Name
  ,                                       !- Interpolate to Timestep
  24,                                     !- Hour 1
  0,                                      !- Minute 1
  0.200152;                               !- Value Until Time 1

OS:Schedule:Day,
  {4271332a-3968-40e1-8f6f-abb956e6f907}, !- Handle
  0800|1700|Laboratory|default|air_velocity Summer Design Day, !- Name
  {51d4eb8d-d197-478c-b3bf-3c307c6c770b}, !- Schedule Type Limits Name
  ,                                       !- Interpolate to Timestep
  24,                                     !- Hour 1
  0,                                      !- Minute 1
  0.200152;                               !- Value Until Time 1

OS:Schedule:Day,
  {7174e6cf-c328-4235-b816-9b79d8b0d202}, !- Handle
  0800|1700|Laboratory|default|air_velocity Winter Design Day, !- Name
  {51d4eb8d-d197-478c-b3bf-3c307c6c770b}, !- Schedule Type Limits Name
  ,                                       !- Interpolate to Timestep
  24,                                     !- Hour 1
  0,                                      !- Minute 1
  0.200152;                               !- Value Until Time 1

OS:Schedule:Ruleset,
  {3e0b6659-335c-402a-a737-ab4d2d13073a}, !- Handle
  0800|1700|Laboratory|default|ext_lighting, !- Name
  {0a9ecfe2-596a-4b93-b72e-307641b904fd}, !- Schedule Type Limits Name
  {b5b1ddc1-e7a0-4720-bbff-40dcb730a7f2}, !- Default Day Schedule Name
  {6a67bb75-12be-4cae-94e4-0a0864572ed6}, !- Summer Design Day Schedule Name
  {e0da42c7-36eb-45fd-886f-31597b1acb43}; !- Winter Design Day Schedule Name

OS:ScheduleTypeLimits,
  {0a9ecfe2-596a-4b93-b72e-307641b904fd}, !- Handle
  Lights Schedule Type Limits,            !- Name
  0,                                      !- Lower Limit Value {BasedOnField A4}
  1,                                      !- Upper Limit Value {BasedOnField A4}
  Continuous,                             !- Numeric Type
  Dimensionless;                          !- Unit Type

OS:Schedule:Day,
  {b5b1ddc1-e7a0-4720-bbff-40dcb730a7f2}, !- Handle
  0800|1700|Laboratory|default|ext_lighting |default, !- Name
  {0a9ecfe2-596a-4b93-b72e-307641b904fd}, !- Schedule Type Limits Name
  ,                                       !- Interpolate to Timestep
  24,                                     !- Hour 1
  0,                                      !- Minute 1
  1;                                      !- Value Until Time 1

OS:Schedule:Day,
  {6a67bb75-12be-4cae-94e4-0a0864572ed6}, !- Handle
  0800|1700|Laboratory|default|ext_lighting Summer Design Day, !- Name
  {0a9ecfe2-596a-4b93-b72e-307641b904fd}, !- Schedule Type Limits Name
  ,                                       !- Interpolate to Timestep
  24,                                     !- Hour 1