
OS:Version,
  {993d63a4-74bc-454c-84f0-d4abacc06d84}, !- Handle
  1.5.5;                                  !- Version Identifier

OS:ClimateZones,
  {135edfab-17e7-40db-a436-27d385a8cd6d}, !- Handle
  ,                                       !- Active Institution
  ,                                       !- Active Year
  ASHRAE,                                 !- Climate Zone Institution Name 1
  ANSI/ASHRAE Standard 169,               !- Climate Zone Document Name 1
  2006,                                   !- Climate Zone Document Year 1
  ,                                       !- Climate Zone Value 1
  CEC,                                    !- Climate Zone Institution Name 2
  California Climate Zone Descriptions,   !- Climate Zone Document Name 2
  1995,                                   !- Climate Zone Document Year 2
  ;                                       !- Climate Zone Value 2

OS:YearDescription,
  {513d8dda-86cb-442a-b01c-1f7f0e0ac70e}; !- Handle

OS:RadianceParameters,
  {270a96f1-3c86-4b75-a667-cdf22790e2c8}, !- Handle
  1,                                      !- Accumulated Rays per Record
  0,                                      !- Direct Threshold
  1,                                      !- Direct Certainty
  1,                                      !- Direct Jitter
  1,                                      !- Direct Pretest
  6,                                      !- Ambient Bounces VMX
  2,                                      !- Ambient Bounces DMX
  4050,                                   !- Ambient Divisions VMX
  512,                                    !- Ambient Divisions DMX
  256,                                    !- Ambient Supersamples
  0.001,                                  !- Limit Weight VMX
  0.001,                                  !- Limit Weight DMX
  500,                                    !- Klems Sampling Density
  146;                                    !- Sky Discretization Resolution

OS:SimulationControl,
  {2c487a4c-bac9-4ac5-b669-1e49d9da7c2b}, !- Handle
  ,                                       !- Do Zone Sizing Calculation
  ,                                       !- Do System Sizing Calculation
  ,                                       !- Do Plant Sizing Calculation
  No,                                     !- Run Simulation for Sizing Periods
  ,                                       !- Run Simulation for Weather File Run Periods
  0.04,                                   !- Loads Convergence Tolerance Value
  ,                                       !- Temperature Convergence Tolerance Value {deltaC}
  ,                                       !- Solar Distribution
  ,                                       !- Maximum Number of Warmup Days
  2;                                      !- Minimum Number of Warmup Days

OS:Sizing:Parameters,
  {dde5af6f-7923-4600-a28a-7556673a0266}, !- Handle
  1.25,                                   !- Heating Sizing Factor
  1.15;                                   !- Cooling Sizing Factor

OS:ProgramControl,
  {05027a99-f2b3-4aeb-afc6-1425fbb4371d}; !- Handle

OS:Timestep,
  {4ebc9f1e-4707-402e-9844-67eb1ffbd522}, !- Handle
  2;                                      !- Number of Timesteps per Hour

OS:OutputControl:ReportingTolerances,
  {65797aa2-06a9-45fe-b69d-bc6e060399d3}; !- Handle

OS:ConvergenceLimits,
  {9fc11aba-8822-4f3d-970c-46391ba4040d}; !- Handle

OS:ShadowCalculation,
  {ca758bea-4416-4626-9bba-3d8795c79bd6}, !- Handle
  7,                                      !- Calculation Frequency
  15000;                                  !- Maximum Figures in Shadow Overlap Calculations

OS:SurfaceConvectionAlgorithm:Inside,
  {aaabfc36-718a-4ab0-b622-f186ebb45230}, !- Handle
  TARP;                                   !- Algorithm

OS:SurfaceConvectionAlgorithm:Outside,
  {9a0a9f6f-4bbd-4b12-a121-9492a1fcd7d6}, !- Handle
  DOE-2;                                  !- Algorithm

OS:HeatBalanceAlgorithm,
  {9d93e563-e1e0-46d7-9e39-d1c8aceb7212}, !- Handle
  ConductionTransferFunction,             !- Algorithm
  200;                                    !- Surface Temperature Upper Limit {F}

OS:ZoneAirHeatBalanceAlgorithm,
  {8520d93e-310f-4696-9bcd-36228bfdd743}, !- Handle
  AnalyticalSolution;                     !- Algorithm

OS:ZoneAirContaminantBalance,
  {eb5fc3ae-fb22-4160-8fcb-3e3b22b000d3}; !- Handle

OS:ZoneCapacitanceMultiplier:ResearchSpecial,
  {4020ce4f-5a7a-4849-8028-8305d7b751b1}, !- Handle
  ,                                       !- Temperature Capacity Multiplier
  ,                                       !- Humidity Capacity Multiplier
  ;                                       !- Carbon Dioxide Capacity Multiplier

OS:RunPeriod,
  {28df894d-6af9-4fb8-8f56-df1753344aa3}, !- Handle
  Run Period 1,                           !- Name
  1,                                      !- Begin Month
  1,                                      !- Begin Day of Month
  12,                                     !- End Month
  31,                                     !- End Day of Month
  ,                                       !- Use Weather File Holidays and Special Days
  ,                                       !- Use Weather File Daylight Saving Period
  ,                                       !- Apply Weekend Holiday Rule
  ,                                       !- Use Weather File Rain Indicators
  ,                                       !- Use Weather File Snow Indicators
  ;                                       !- Number of Times Runperiod to be Repeated

OS:Building,
  {bf305633-c5a1-4881-9edf-ca5e1a8e1274}, !- Handle
  Building 1,                             !- Name
  ,                                       !- Building Sector Type
  ,                                       !- North Axis {deg}
  ,                                       !- Nominal Floor to Floor Height {m}
  ,                                       !- Space Type Name
  ,                                       !- Default Construction Set Name
  {e01f2a61-c55b-4b79-bde3-7f2f5b28d3a6}, !- Default Schedule Set Name
  ,                                       !- Standards Number of Stories
  ,                                       !- Standards Number of Above Ground Stories
  Laboratory;                             !- Standards Building Type

OS:LifeCycleCost:Parameters,
  {231cf8a0-f0e7-4251-a99f-11f0d464e661}, !- Handle
  FEMP,                                   !- Analysis Type
  ,                                       !- Discounting Convention
  ,                                       !- Inflation Approach
  ,                                       !- Real Discount Rate
  ,                                       !- Nominal Discount Rate
  ,                                       !- Inflation
  ,                                       !- Base Date Month
  ,                                       !- Base Date Year
  ,                                       !- Service Date Month
  ,                                       !- Service Date Year
  ,                                       !- Length of Study Period in Years
  ,                                       !- Tax Rate
  ,                                       !- Depreciation Method
  Yes;                                    !- Use NIST Fuel Escalation Rates

OS:Facility,
  {3ba8e45b-b833-44eb-a723-ea6c3946dc96}; !- Handle

OS:SpaceType,
  {050c1d04-3ca4-4e94-8fe5-3e9e1c89a017}, !- Handle
  Laboratory|BlendOff|DOE Ref Pre-1980|ASHRAE 169-2006-5A, !- Name
  {1e3a551f-3178-49f8-b0cc-f5f85e512c80}, !- Default Construction Set Name
  ,                                       !- Default Schedule Set Name
  {76a349d5-9e39-4683-8c7a-f5aea51e8097}, !- Group Rendering Name
  {4103dddd-c754-404e-b27c-7114031018b1}, !- Design Specification Outdoor Air Object Name
  Laboratory,                             !- Standards Building Type
  BlendOff;                               !- Standards Space Type

OS:Rendering:Color,
  {76a349d5-9e39-4683-8c7a-f5aea51e8097}, !- Handle
  Rendering Color 1,                      !- Name
  120,                                    !- Rendering Red Value
  230,                                    !- Rendering Green Value
  199;                                    !- Rendering Blue Value

OS:SpaceType,
  {ac675c50-7717-45fe-8d78-d912d232964c}, !- Handle
  Laboratory|Lab|DOE Ref Pre-1980|ASHRAE 169-2006-5A, !- Name
  {1e3a551f-3178-49f8-b0cc-f5f85e512c80}, !- Default Construction Set Name
  {8f49a834-8f1a-46b7-ab98-9a0bd5faf0f5}, !- Default Schedule Set Name
  {f091c126-00e1-49f2-b272-177e3b37943c}, !- Group Rendering Name
  {6e1ad964-4489-493a-ba7c-94cb9859b28e}, !- Design Specification Outdoor Air Object Name
  Laboratory,                             !- Standards Building Type
  Lab;                                    !- Standards Space Type

OS:Rendering:Color,
  {f091c126-00e1-49f2-b272-177e3b37943c}, !- Handle
  Rendering Color 2,                      !- Name
  204,                                    !- Rendering Red Value
  120,                                    !- Rendering Green Value
  230;                                    !- Rendering Blue Value

OS:SpaceType,
  {4a19cd9b-2c74-41cd-9d9d-b35605d57df8}, !- Handle
  Laboratory|BlendCirc|DOE Ref Pre-1980|ASHRAE 169-2006-5A, !- Name
  {1e3a551f-3178-49f8-b0cc-f5f85e512c80}, !- Default Construction Set Name
  ,                                       !- Default Schedule Set Name
  {31efeacf-8078-48a3-b07a-497d7c88f4d5}, !- Group Rendering Name
  {c970a7e3-8bfc-43b8-8a30-a0a0a746a5a4}, !- Design Specification Outdoor Air Object Name
  Laboratory,                             !- Standards Building Type
  BlendCirc;                              !- Standards Space Type

OS:Rendering:Color,
  {31efeacf-8078-48a3-b07a-497d7c88f4d5}, !- Handle
  Rendering Color 3,                      !- Name
  120,                                    !- Rendering Red Value
  149,                                    !- Rendering Green Value
  230;                                    !- Rendering Blue Value

OS:SpaceType,
  {f92c500a-3bed-4de0-89ca-6998d5a8cd21}, !- Handle
  Laboratory|BlendMisc|DOE Ref Pre-1980|ASHRAE 169-2006-5A, !- Name
  {1e3a551f-3178-49f8-b0cc-f5f85e512c80}, !- Default Construction Set Name
  ,                                       !- Default Schedule Set Name
  {d4d7ac2a-20c9-4206-b668-1b93db0fd883}, !- Group Rendering Name
  {cdca2cc7-3aca-4f69-95e0-7f50c5611ab4}, !- Design Specification Outdoor Air Object Name
  Laboratory,                             !- Standards Building Type
  BlendMisc;                              !- Standards Space Type

OS:Rendering:Color,
  {d4d7ac2a-20c9-4206-b668-1b93db0fd883}, !- Handle
  Rendering Color 4,                      !- Name
  41,                                     !- Rendering Red Value
  31,                                     !- Rendering Green Value
  169;                                    !- Rendering Blue Value

OS:SpaceType,
  {58d25418-82ec-4ce3-ab4e-7ffe83150cab}, !- Handle
  Laboratory|Restroom|DOE Ref Pre-1980|ASHRAE 169-2006-5A, !- Name
  {1e3a551f-3178-49f8-b0cc-f5f85e512c80}, !- Default Construction Set Name
  {6f73ec30-ac1a-496f-b66a-98fc15eac20c}, !- Default Schedule Set Name
  {45c8a66a-e7d7-414e-8c2b-858fc1092cbd}, !- Group Rendering Name
  {16ef3cc9-2960-4c5f-bf2b-dfb4b22c8908}, !- Design Specification Outdoor Air Object Name
  Laboratory,                             !- Standards Building Type
  Restroom;                               !- Standards Space Type

OS:Rendering:Color,
  {45c8a66a-e7d7-414e-8c2b-858fc1092cbd}, !- Handle
  Rendering Color 5,                      !- Name
  169,                                    !- Rendering Red Value
  169,                                    !- Rendering Green Value
  31;                                     !- Rendering Blue Value

OS:Schedule:Ruleset,
  {2e98b4d0-037e-47a7-963e-cb3c07c4152f}, !- Handle
  0800|1700|Laboratory|default|hoo,       !- Name
  {2660e6ac-a76a-481f-981e-c3251337d719}, !- Schedule Type Limits Name
  {826c04ea-1990-45c3-a940-ca1e7f878743}, !- Default Day Schedule Name
  {53de7d53-8a28-4534-82df-aae3fe4e4f44}, !- Summer Design Day Schedule Name
  {1dd29054-5035-4320-b466-6db57ef7b853}; !- Winter Design Day Schedule Name

OS:Schedule:Day,
  {826c04ea-1990-45c3-a940-ca1e7f878743}, !- Handle
  0800|1700|Laboratory|default|hoo Schedule Week Day, !- Name
  {2660e6ac-a76a-481f-981e-c3251337d719}, !- Schedule Type Limits Name
  ,                                       !- Interpolate to Timestep
  8,                                      !- Hour 1
  0,                                      !- Minute 1
  0,                                      !- Value Until Time 1
  17,                                     !- Hour 2
  0,                                      !- Minute 2
  1,                                      !- Value Until Time 2
  24,                                     !- Hour 3
  0,                                      !- Minute 3
  0;                                      !- Value Until Time 3

OS:Schedule:Day,
  {ee8daf41-c549-405a-b10e-dfd657f80b6b}, !- Handle
  Schedule Day 2,                         !- Name
  ,                                       !- Schedule Type Limits Name
  ,                                       !- Interpolate to Timestep
  24,                                     !- Hour 1
  0,                                      !- Minute 1
  0;                                      !- Value Until Time 1

OS:Schedule:Day,
  {1dd29054-5035-4320-b466-6db57ef7b853}, !- Handle
  0800|1700|Laboratory|default|hoo Winter Design Day, !- Name
  {2660e6ac-a76a-481f-981e-c3251337d719}, !- Schedule Type Limits Name
  ,                                       !- Interpolate to Timestep
  24,                                     !- Hour 1
  0,                                      !- Minute 1
  0;                                      !- Value Until Time 1

OS:Schedule:Day,
  {669fa5e9-01ff-4804-b13c-f496315a7823}, !- Handle
  Schedule Day 3,                         !- Name
  ,                                       !- Schedule Type Limits Name
  ,                                       !- Interpolate to Timestep
  24,                                     !- Hour 1
  0,                                      !- Minute 1
  0;                                      !- Value Until Time 1

OS:Schedule:Day,
  {53de7d53-8a28-4534-82df-aae3fe4e4f44}, !- Handle
  0800|1700|Laboratory|default|hoo Summer Design Day, !- Name
  {2660e6ac-a76a-481f-981e-c3251337d719}, !- Schedule Type Limits Name
  ,                                       !- Interpolate to Timestep
  24,                                     !- Hour 1
  0,                                      !- Minute 1
  1;                                      !- Value Until Time 1

OS:DefaultScheduleSet,
  {e01f2a61-c55b-4b79-bde3-7f2f5b28d3a6}, !- Handle
  Building Hours of Operation,            !- Name
  {2e98b4d0-037e-47a7-963e-cb3c07c4152f}, !- Hours of Operation Schedule Name
  ,                                       !- Number of People Schedule Name
  ,                                       !- People Activity Level Schedule Name
  ,                                       !- Lighting Schedule Name
  ,                                       !- Electric Equipment Schedule Name
  ,                                       !- Gas Equipment Schedule Name
  ,                                       !- Hot Water Equipment Schedule Name
  ,                                       !- Infiltration Schedule Name
  ,                                       !- Steam Equipment Schedule Name
  ;                                       !- Other Equipment Schedule Name

OS:ScheduleTypeLimits,
  {2660e6ac-a76a-481f-981e-c3251337d719}, !- Handle
  OnOff,                                  !- Name
  0,                                      !- Lower Limit Value {BasedOnField A4}
  1,                                      !- Upper Limit Value {BasedOnField A4}
  Discrete,                               !- Numeric Type
  Availability;                           !- Unit Type

OS:Schedule:Ruleset,
  {ef75283a-bd5a-49e7-ae20-63920344269a}, !- Handle
  0800|1700|Laboratory|default|htg_setpoint, !- Name
  {da73cf1e-223e-4ab1-937c-aa3f5e45e7fc}, !- Schedule Type Limits Name
  {056a64bd-efd5-4fd4-9a8f-242df908c448}, !- Default Day Schedule Name
  {ee7250f8-3976-4806-9f1b-62dca5f4d9da}, !- Summer Design Day Schedule Name
  {db804b51-9b6a-4f43-9409-29bb0b9da6cb}; !- Winter Design Day Schedule Name

OS:ScheduleTypeLimits,
  {da73cf1e-223e-4ab1-937c-aa3f5e45e7fc}, !- Handle
  Thermostat Heating Setpoint Schedule Type Limits, !- Name
  0,                                      !- Lower Limit Value {BasedOnField A4}
  100,                                    !- Upper Limit Value {BasedOnField A4}
  Continuous,                             !- Numeric Type
  Temperature;                            !- Unit Type

OS:Schedule:Day,
  {056a64bd-efd5-4fd4-9a8f-242df908c448}, !- Handle
  0800|1700|Laboratory|default|htg_setpoint |default, !- Name
  {da73cf1e-223e-4ab1-937c-aa3f5e45e7fc}, !- Schedule Type Limits Name
  ,                                       !- Interpolate to Timestep
  24,                                     !- Hour 1
  0,                                      !- Minute 1
  21.0000000000001;                       !- Value Until Time 1

OS:Schedule:Day,
  {ee7250f8-3976-4806-9f1b-62dca5f4d9da}, !- Handle
  0800|1700|Laboratory|default|htg_setpoint Summer Design Day, !- Name
  {da73cf1e-223e-4ab1-937c-aa3f5e45e7fc}, !- Schedule Type Limits Name
  ,                                       !- Interpolate to Timestep
  24,                                     !- Hour 1
  0,                                      !- Minute 1
  21.0000000000001;                       !- Value Until Time 1

OS:Schedule:Day,
  {db804b51-9b6a-4f43-9409-29bb0b9da6cb}, !- Handle
  0800|1700|Laboratory|default|htg_setpoint Winter Design Day, !- Name
  {da73cf1e-223e-4ab1-937c-aa3f5e45e7fc}, !- Schedule Type Limits Name
  ,                                       !- Interpolate to Timestep
  24,                                     !- Hour 1
  0,                                      !- Minute 1
  21.0000000000001;                       !- Value Until Time 1

OS:Schedule:Rule,
  {e8d87d2c-e504-416e-9b82-6ebdbb989bc4}, !- Handle
  0800|1700|Laboratory|default|htg_setpoint |1/1-12/31|Sun Rule, !- Name
  {ef75283a-bd5a-49e7-ae20-63920344269a}, !- Schedule Ruleset Name
  0,                                      !- Rule Order
  {d9ff00cc-a8f9-4c80-b6d5-0574b95f1595}, !- Day Schedule Name
  Yes,                                    !- Apply Sunday
  ,                                       !- Apply Monday
  ,                                       !- Apply Tuesday
  ,                                       !- Apply Wednesday
  ,                                       !- Apply Thursday
  ,                                       !- Apply Friday
  ,                                       !- Apply Saturday
  ,                                       !- Apply Holiday
  DateRange,                              !- Date Specification Type
  1,                                      !- Start Month
  1,                                      !- Start Day
  12,                                     !- End Month
  31;                                     !- End Day

OS:Schedule:Day,
  {d9ff00cc-a8f9-4c80-b6d5-0574b95f1595}, !- Handle
  0800|1700|Laboratory|default|htg_setpoint |1/1-12/31|Sun, !- Name
  {da73cf1e-223e-4ab1-937c-aa3f5e45e7fc}, !- Schedule Type Limits Name
  ,                                       !- Interpolate to Timestep
  24,                                     !- Hour 1
  0,                                      !- Minute 1
  21.0000000000001;                       !- Value Until Time 1

OS:Schedule:Rule,
  {059e57a1-f291-4e17-84a0-3d9989723895}, !- Handle
  0800|1700|Laboratory|default|htg_setpoint |1/1-12/31|Sat Rule, !- Name
  {ef75283a-bd5a-49e7-ae20-63920344269a}, !- Schedule Ruleset Name
  1,                                      !- Rule Order
  {1437ed12-1e60-4538-8881-2044ba26dfa2}, !- Day Schedule Name
  ,                                       !- Apply Sunday
  ,                                       !- Apply Monday
  ,                                       !- Apply Tuesday
  ,                                       !- Apply Wednesday
  ,                                       !- Apply Thursday
  ,                                       !- Apply Friday
  Yes,                                    !- Apply Saturday
  ,                                       !- Apply Holiday
  DateRange,                              !- Date Specification Type
  1,                                      !- Start Month
  1,                                      !- Start Day
  12,                                     !- End Month
  31;                                     !- End Day

OS:Schedule:Day,
  {1437ed12-1e60-4538-8881-2044ba26dfa2}, !- Handle
  0800|1700|Laboratory|default|htg_setpoint |1/1-12/31|Sat, !- Name
  {da73cf1e-223e-4ab1-937c-aa3f5e45e7fc}, !- Schedule Type Limits Name
  ,                                       !- Interpolate to Timestep
  24,                                     !- Hour 1
  0,                                      !- Minute 1
  21.0000000000001;                       !- Value Until Time 1

OS:Schedule:Ruleset,
  {61d07811-3006-4acf-898b-79b71e9cd35a}, !- Handle
  0800|1700|Laboratory|default|clothing,  !- Name
  {9658a7bb-48f7-4208-9e3d-c983ba7cf952}, !- Schedule Type Limits Name
  {5dc02bdd-75e4-4172-ba4f-49ccb060fd04}, !- Default Day Schedule Name
  {752aef83-e03f-423e-93fd-73a0c18cac75}, !- Summer Design Day Schedule Name
  {d5a082a0-1422-4ba3-8f41-a1581b5bbeb7}; !- Winter Design Day Schedule Name

OS:ScheduleTypeLimits,
  {9658a7bb-48f7-4208-9e3d-c983ba7cf952}, !- Handle
  Dimensionless Schedule Type Limits,     !- Name
  ,                                       !- Lower Limit Value {BasedOnField A4}
  ,                                       !- Upper Limit Value {BasedOnField A4}
  Continuous,                             !- Numeric Type
  Dimensionless;                          !- Unit Type

OS:Schedule:Day,
  {5dc02bdd-75e4-4172-ba4f-49ccb060fd04}, !- Handle
  0800|1700|Laboratory|default|clothing |default, !- Name
  {9658a7bb-48f7-4208-9e3d-c983ba7cf952}, !- Schedule Type Limits Name
  ,                                       !- Interpolate to Timestep
  24,                                     !- Hour 1
  0,                                      !- Minute 1
  0.9;                                    !- Value Until Time 1

OS:Schedule:Day,
  {752aef83-e03f-423e-93fd-73a0c18cac75}, !- Handle
  0800|1700|Laboratory|default|clothing Summer Design Day, !- Name
  {9658a7bb-48f7-4208-9e3d-c983ba7cf952}, !- Schedule Type Limits Name
  ,                                       !- Interpolate to Timestep
  24,                                     !- Hour 1
  0,                                      !- Minute 1
  0.9;                                    !- Value Until Time 1

OS:Schedule:Day,
  {d5a082a0-1422-4ba3-8f41-a1581b5bbeb7}, !- Handle
  0800|1700|Laboratory|default|clothing Winter Design Day, !- Name
  {9658a7bb-48f7-4208-9e3d-c983ba7cf952}, !- Schedule Type Limits Name
  ,                                       !- Interpolate to Timestep
  24,                                     !- Hour 1
  0,                                      !- Minute 1
  0.9;                                    !- Value Until Time 1

OS:Schedule:Rule,
  {3ef7c10d-0e17-4234-9d96-78db4531a333}, !- Handle
  0800|1700|Laboratory|default|clothing |7/1-9/30|Mon/Tue/Wed/Thu/Fri/Sat/Sun Rule, !- Name
  {61d07811-3006-4acf-898b-79b71e9cd35a}, !- Schedule Ruleset Name
  0,                                      !- Rule Order
  {f5236634-efe4-4fed-b28e-b900ed4d2ca6}, !- Day Schedule Name
  Yes,                                    !- Apply Sunday
  Yes,                                    !- Apply Monday
  Yes,                                    !- Apply Tuesday
  Yes,                                    !- Apply Wednesday
  Yes,                                    !- Apply Thursday
  Yes,                                    !- Apply Friday
  Yes,                                    !- Apply Saturday
  ,                                       !- Apply Holiday
  DateRange,                              !- Date Specification Type
  7,                                      !- Start Month
  1,                                      !- Start Day
  9,                                      !- End Month
  30;                                     !- End Day

OS:Schedule:Day,
  {f5236634-efe4-4fed-b28e-b900ed4d2ca6}, !- Handle
  0800|1700|Laboratory|default|clothing |7/1-9/30|Mon/Tue/Wed/Thu/Fri/Sat/Sun, !- Name
  {9658a7bb-48f7-4208-9e3d-c983ba7cf952}, !- Schedule Type Limits Name
  ,                                       !- Interpolate to Timestep
  24,                                     !- Hour 1
  0,                                      !- Minute 1
  0.7;                                    !- Value Until Time 1

OS:Schedule:Rule,
  {d3db91ed-a733-4d81-b432-01d2dedbf783}, !- Handle
  0800|1700|Laboratory|default|clothing |12/1-3/31|Mon/Tue/Wed/Thu/Fri/Sat/Sun Rule, !- Name
  {61d07811-3006-4acf-898b-79b71e9cd35a}, !- Schedule Ruleset Name
  1,                                      !- Rule Order
  {56fbd4ad-b7e7-4c4b-871c-f0b2f0a61230}, !- Day Schedule Name
  Yes,                                    !- Apply Sunday
  Yes,                                    !- Apply Monday
  Yes,                                    !- Apply Tuesday
  Yes,                                    !- Apply Wednesday
  Yes,                                    !- Apply Thursday
  Yes,                                    !- Apply Friday
  Yes,                                    !- Apply Saturday
  ,                                       !- Apply Holiday
  DateRange,                              !- Date Specification Type
  12,                                     !- Start Month
  1,                                      !- Start Day
  3,                                      !- End Month
  31;                                     !- End Day

OS:Schedule:Day,
  {56fbd4ad-b7e7-4c4b-871c-f0b2f0a61230}, !- Handle
  0800|1700|Laboratory|default|clothing |12/1-3/31|Mon/Tue/Wed/Thu/Fri/Sat/Sun, !- Name
  {9658a7bb-48f7-4208-9e3d-c983ba7cf952}, !- Schedule Type Limits Name
  ,                                       !- Interpolate to Timestep
  24,                                     !- Hour 1
  0,                                      !- Minute 1
  1.3;                                    !- Value Until Time 1

OS:Schedule:Ruleset,
  {85bab10b-6bb4-4cdf-b498-1ba65ca46f6b}, !- Handle
  0800|1700|Laboratory|default|air_velocity, !- Name
  {9658a7bb-48f7-4208-9e3d-c983ba7cf952}, !- Schedule Type Limits Name
  {ae1bd984-0566-403d-a531-966562177d7c}, !- Default Day Schedule Name
  {5cb1fd63-ef8e-443e-bd82-fe45d44de879}, !- Summer Design Day Schedule Name
  {38ba7914-10bd-435a-a98a-736cc5a7daac}; !- Winter Design Day Schedule Name

OS:Schedule:Day,
  {ae1bd984-0566-403d-a531-966562177d7c}, !- Handle
  0800|1700|Laboratory|default|air_velocity |default, !- Name
  {9658a7bb-48f7-4208-9e3d-c983ba7cf952}, !- Schedule Type Limits Name
  ,                                       !- Interpolate to Timestep
  24,                                     !- Hour 1
  0,                                      !- Minute 1
  0.200152;                               !- Value Until Time 1

OS:Schedule:Day,
  {5cb1fd63-ef8e-443e-bd82-fe45d44de879}, !- Handle
  0800|1700|Laboratory|default|air_velocity Summer Design Day, !- Name
  {9658a7bb-48f7-4208-9e3d-c983ba7cf952}, !- Schedule Type Limits Name
  ,                                       !- Interpolate to Timestep
  24,                                     !- Hour 1
  0,                                      !- Minute 1
  0.200152;                               !- Value Until Time 1

OS:Schedule:Day,
  {38ba7914-10bd-435a-a98a-736cc5a7daac}, !- Handle
  0800|1700|Laboratory|default|air_velocity Winter Design Day, !- Name
  {9658a7bb-48f7-4208-9e3d-c983ba7cf952}, !- Schedule Type Limits Name
  ,                                       !- Interpolate to Timestep
  24,                                     !- Hour 1
  0,                                      !- Minute 1
  0.200152;                               !- Value Until Time 1

OS:Schedule:Ruleset,
  {52d13ce2-de07-4462-8b12-2a396bd9bda1}, !- Handle
  0800|1700|Laboratory|default|ext_lighting, !- Name
  {2cd8a891-2941-4483-be80-a53499deef4b}, !- Schedule Type Limits Name
  {bfdfbc66-53fc-4022-9231-b3c17296241d}, !- Default Day Schedule Name
  {6135e8d8-6461-4196-b864-671cf4ff74c2}, !- Summer Design Day Schedule Name
  {5bc6655b-7cc2-488a-b372-83ae50c1f858}; !- Winter Design Day Schedule Name

OS:ScheduleTypeLimits,
  {2cd8a891-2941-4483-be80-a53499deef4b}, !- Handle
  Lights Schedule Type Limits,            !- Name
  0,                                      !- Lower Limit Value {BasedOnField A4}
  1,                                      !- Upper Limit Value {BasedOnField A4}
  Continuous,                             !- Numeric Type
  Dimensionless;                          !- Unit Type

OS:Schedule:Day,
  {bfdfbc66-53fc-4022-9231-b3c17296241d}, !- Handle
  0800|1700|Laboratory|default|ext_lighting |default, !- Name
  {2cd8a891-2941-4483-be80-a53499deef4b}, !- Schedule Type Limits Name
  ,                                       !- Interpolate to Timestep
  24,                                     !- Hour 1
  0,                                      !- Minute 1
  1;                                      !- Value Until Time 1

OS:Schedule:Day,
  {6135e8d8-6461-4196-b864-671cf4ff74c2}, !- Handle
  0800|1700|Laboratory|default|ext_lighting Summer Design Day, !- Name
  {2cd8a891-2941-4483-be80-a53499deef4b}, !- Schedule Type Limits Name
  ,                                       !- Interpolate to Timestep
  24,                                     !- Hour 1