
OS:Version,
  {a82bb5fc-b3e0-4173-87e3-f002df08ce61}, !- Handle
  1.6.0;                                  !- Version Identifier

OS:ClimateZones,
  {135edfab-17e7-40db-a436-27d385a8cd6d}, !- Handle
  ,                                       !- Active Institution
  ,                                       !- Active Year
  ASHRAE,                                 !- Climate Zone Institution Name 1
  ANSI/ASHRAE Standard 169,               !- Climate Zone Document Name 1
  2006,                                   !- Climate Zone Document Year 1
  ,                                       !- Climate Zone Value 1
  CEC,                                    !- Climate Zone Institution Name 2
  California Climate Zone Descriptions,   !- Climate Zone Document Name 2
  1995,                                   !- Climate Zone Document Year 2
  ;                                       !- Climate Zone Value 2

OS:YearDescription,
  {513d8dda-86cb-442a-b01c-1f7f0e0ac70e}; !- Handle

OS:RadianceParameters,
  {270a96f1-3c86-4b75-a667-cdf22790e2c8}, !- Handle
  1,                                      !- Accumulated Rays per Record
  0,                                      !- Direct Threshold
  1,                                      !- Direct Certainty
  1,                                      !- Direct Jitter
  1,                                      !- Direct Pretest
  6,                                      !- Ambient Bounces VMX
  2,                                      !- Ambient Bounces DMX
  4050,                                   !- Ambient Divisions VMX
  512,                                    !- Ambient Divisions DMX
  256,                                    !- Ambient Supersamples
  0.001,                                  !- Limit Weight VMX
  0.001,                                  !- Limit Weight DMX
  500,                                    !- Klems Sampling Density
  146;                                    !- Sky Discretization Resolution

OS:SimulationControl,
  {2c487a4c-bac9-4ac5-b669-1e49d9da7c2b}, !- Handle
  ,                                       !- Do Zone Sizing Calculation
  ,                                       !- Do System Sizing Calculation
  ,                                       !- Do Plant Sizing Calculation
  No,                                     !- Run Simulation for Sizing Periods
  ,                                       !- Run Simulation for Weather File Run Periods
  0.04,                                   !- Loads Convergence Tolerance Value
  ,                                       !- Temperature Convergence Tolerance Value {deltaC}
  ,                                       !- Solar Distribution
  ,                                       !- Maximum Number of Warmup Days
  2;                                      !- Minimum Number of Warmup Days

OS:Sizing:Parameters,
  {dde5af6f-7923-4600-a28a-7556673a0266}, !- Handle
  1.25,                                   !- Heating Sizing Factor
  1.15;                                   !- Cooling Sizing Factor

OS:ProgramControl,
  {05027a99-f2b3-4aeb-afc6-1425fbb4371d}; !- Handle

OS:Timestep,
  {4ebc9f1e-4707-402e-9844-67eb1ffbd522}, !- Handle
  2;                                      !- Number of Timesteps per Hour

OS:OutputControl:ReportingTolerances,
  {65797aa2-06a9-45fe-b69d-bc6e060399d3}; !- Handle

OS:ConvergenceLimits,
  {9fc11aba-8822-4f3d-970c-46391ba4040d}; !- Handle

OS:ShadowCalculation,
  {ca758bea-4416-4626-9bba-3d8795c79bd6}, !- Handle
  7,                                      !- Calculation Frequency
  15000;                                  !- Maximum Figures in Shadow Overlap Calculations

OS:SurfaceConvectionAlgorithm:Inside,
  {aaabfc36-718a-4ab0-b622-f186ebb45230}, !- Handle
  TARP;                                   !- Algorithm

OS:SurfaceConvectionAlgorithm:Outside,
  {9a0a9f6f-4bbd-4b12-a121-9492a1fcd7d6}, !- Handle
  DOE-2;                                  !- Algorithm

OS:HeatBalanceAlgorithm,
  {9d93e563-e1e0-46d7-9e39-d1c8aceb7212}, !- Handle
  ConductionTransferFunction,             !- Algorithm
  200;                                    !- Surface Temperature Upper Limit {F}

OS:ZoneAirHeatBalanceAlgorithm,
  {8520d93e-310f-4696-9bcd-36228bfdd743}, !- Handle
  AnalyticalSolution;                     !- Algorithm

OS:ZoneAirContaminantBalance,
  {eb5fc3ae-fb22-4160-8fcb-3e3b22b000d3}; !- Handle

OS:ZoneCapacitanceMultiplier:ResearchSpecial,
  {4020ce4f-5a7a-4849-8028-8305d7b751b1}, !- Handle
  ,                                       !- Temperature Capacity Multiplier
  ,                                       !- Humidity Capacity Multiplier
  ;                                       !- Carbon Dioxide Capacity Multiplier

OS:RunPeriod,
  {28df894d-6af9-4fb8-8f56-df1753344aa3}, !- Handle
  Run Period 1,                           !- Name
  1,                                      !- Begin Month
  1,                                      !- Begin Day of Month
  12,                                     !- End Month
  31,                                     !- End Day of Month
  ,                                       !- Use Weather File Holidays and Special Days
  ,                                       !- Use Weather File Daylight Saving Period
  ,                                       !- Apply Weekend Holiday Rule
  ,                                       !- Use Weather File Rain Indicators
  ,                                       !- Use Weather File Snow Indicators
  ;                                       !- Number of Times Runperiod to be Repeated

OS:Building,
  {bf305633-c5a1-4881-9edf-ca5e1a8e1274}, !- Handle
  Building 1,                             !- Name
  ,                                       !- Building Sector Type
  ,                                       !- North Axis {deg}
  ,                                       !- Nominal Floor to Floor Height {m}
  ,                                       !- Space Type Name
  ,                                       !- Default Construction Set Name
  {ed7ea34f-b765-4a56-8b1b-e6fe6319d74d}, !- Default Schedule Set Name
  ,                                       !- Standards Number of Stories
  ,                                       !- Standards Number of Above Ground Stories
  Laboratory;                             !- Standards Building Type

OS:LifeCycleCost:Parameters,
  {231cf8a0-f0e7-4251-a99f-11f0d464e661}, !- Handle
  FEMP,                                   !- Analysis Type
  ,                                       !- Discounting Convention
  ,                                       !- Inflation Approach
  ,                                       !- Real Discount Rate
  ,                                       !- Nominal Discount Rate
  ,                                       !- Inflation
  ,                                       !- Base Date Month
  ,                                       !- Base Date Year
  ,                                       !- Service Date Month
  ,                                       !- Service Date Year
  ,                                       !- Length of Study Period in Years
  ,                                       !- Tax Rate
  ,                                       !- Depreciation Method
  Yes;                                    !- Use NIST Fuel Escalation Rates

OS:Facility,
  {3ba8e45b-b833-44eb-a723-ea6c3946dc96}; !- Handle

OS:SpaceType,
  {75ee457e-7f9b-478c-89a4-922506ed3b64}, !- Handle
  Laboratory|BlendOff|DOE Ref Pre-1980|ASHRAE 169-2006-5A, !- Name
  {c1a5c409-93bc-4593-9b56-3f48b6a63563}, !- Default Construction Set Name
  ,                                       !- Default Schedule Set Name
  {48c79bf9-bbab-4a4f-9e1a-97ab7751cad3}, !- Group Rendering Name
  {5b2131b3-9611-4702-8353-4b3c794e4cbb}, !- Design Specification Outdoor Air Object Name
  Laboratory,                             !- Standards Building Type
  BlendOff;                               !- Standards Space Type

OS:Rendering:Color,
  {48c79bf9-bbab-4a4f-9e1a-97ab7751cad3}, !- Handle
  Rendering Color 1,                      !- Name
  120,                                    !- Rendering Red Value
  230,                                    !- Rendering Green Value
  199;                                    !- Rendering Blue Value

OS:SpaceType,
  {113b981b-f78e-4a7d-83cc-edb8d0747664}, !- Handle
  Laboratory|Lab|DOE Ref Pre-1980|ASHRAE 169-2006-5A, !- Name
  {c1a5c409-93bc-4593-9b56-3f48b6a63563}, !- Default Construction Set Name
  {3c8affc5-b899-4d69-a889-3222492305a7}, !- Default Schedule Set Name
  {8d914533-e18c-4b00-bea6-6287263fa66d}, !- Group Rendering Name
  {ece32baf-ebfe-4d16-9e6c-70fcd2d4938e}, !- Design Specification Outdoor Air Object Name
  Laboratory,                             !- Standards Building Type
  Lab;                                    !- Standards Space Type

OS:Rendering:Color,
  {8d914533-e18c-4b00-bea6-6287263fa66d}, !- Handle
  Rendering Color 2,                      !- Name
  204,                                    !- Rendering Red Value
  120,                                    !- Rendering Green Value
  230;                                    !- Rendering Blue Value

OS:SpaceType,
  {e0687a4c-07f5-4fc6-9dce-1859402d8d60}, !- Handle
  Laboratory|BlendCirc|DOE Ref Pre-1980|ASHRAE 169-2006-5A, !- Name
  {c1a5c409-93bc-4593-9b56-3f48b6a63563}, !- Default Construction Set Name
  ,                                       !- Default Schedule Set Name
  {7379b08d-0063-4a58-93ca-7d927520ae89}, !- Group Rendering Name
  {ed9bfc21-958d-438c-885e-6998c6264276}, !- Design Specification Outdoor Air Object Name
  Laboratory,                             !- Standards Building Type
  BlendCirc;                              !- Standards Space Type

OS:Rendering:Color,
  {7379b08d-0063-4a58-93ca-7d927520ae89}, !- Handle
  Rendering Color 3,                      !- Name
  120,                                    !- Rendering Red Value
  149,                                    !- Rendering Green Value
  230;                                    !- Rendering Blue Value

OS:SpaceType,
  {38d714b9-43d2-46a6-9dbc-5f3e92a39fe1}, !- Handle
  Laboratory|BlendMisc|DOE Ref Pre-1980|ASHRAE 169-2006-5A, !- Name
  {c1a5c409-93bc-4593-9b56-3f48b6a63563}, !- Default Construction Set Name
  ,                                       !- Default Schedule Set Name
  {ef41a72e-abeb-4c07-9498-6ebb56f88574}, !- Group Rendering Name
  {7e69b874-1d42-49eb-8ce1-a0331b7be6e8}, !- Design Specification Outdoor Air Object Name
  Laboratory,                             !- Standards Building Type
  BlendMisc;                              !- Standards Space Type

OS:Rendering:Color,
  {ef41a72e-abeb-4c07-9498-6ebb56f88574}, !- Handle
  Rendering Color 4,                      !- Name
  41,                                     !- Rendering Red Value
  31,                                     !- Rendering Green Value
  169;                                    !- Rendering Blue Value

OS:SpaceType,
  {a0869c33-70dc-47fe-a492-2f2c8e051ed9}, !- Handle
  Laboratory|Restroom|DOE Ref Pre-1980|ASHRAE 169-2006-5A, !- Name
  {c1a5c409-93bc-4593-9b56-3f48b6a63563}, !- Default Construction Set Name
  {dd1847ae-124b-45b4-bb09-c5eda5f344c7}, !- Default Schedule Set Name
  {34b2d766-b81d-48f2-a745-d5609812a8ca}, !- Group Rendering Name
  {d716f38b-e997-49b4-9021-b948f6e43723}, !- Design Specification Outdoor Air Object Name
  Laboratory,                             !- Standards Building Type
  Restroom;                               !- Standards Space Type

OS:Rendering:Color,
  {34b2d766-b81d-48f2-a745-d5609812a8ca}, !- Handle
  Rendering Color 5,                      !- Name
  169,                                    !- Rendering Red Value
  169,                                    !- Rendering Green Value
  31;                                     !- Rendering Blue Value

OS:Schedule:Ruleset,
  {144e5e0d-aa74-45b1-9f23-53c48c1201a6}, !- Handle
  0800|1700|Laboratory|default|hoo,       !- Name
  {9dfd1454-14cf-4eb4-915c-c12edbcdb869}, !- Schedule Type Limits Name
  {74c05057-d6fd-4922-a49f-8bbfca7a2162}, !- Default Day Schedule Name
  {df4444ff-ff90-4676-9b07-da204a92abe2}, !- Summer Design Day Schedule Name
  {bafba5d1-b50a-4bca-9c8d-162063147af0}; !- Winter Design Day Schedule Name

OS:Schedule:Day,
  {74c05057-d6fd-4922-a49f-8bbfca7a2162}, !- Handle
  0800|1700|Laboratory|default|hoo Schedule Week Day, !- Name
  {9dfd1454-14cf-4eb4-915c-c12edbcdb869}, !- Schedule Type Limits Name
  ,                                       !- Interpolate to Timestep
  8,                                      !- Hour 1
  0,                                      !- Minute 1
  0,                                      !- Value Until Time 1
  17,                                     !- Hour 2
  0,                                      !- Minute 2
  1,                                      !- Value Until Time 2
  24,                                     !- Hour 3
  0,                                      !- Minute 3
  0;                                      !- Value Until Time 3

OS:Schedule:Day,
  {b5edc724-2d8b-4956-a5d4-97bbd9cf7202}, !- Handle
  Schedule Day 2,                         !- Name
  ,                                       !- Schedule Type Limits Name
  ,                                       !- Interpolate to Timestep
  24,                                     !- Hour 1
  0,                                      !- Minute 1
  0;                                      !- Value Until Time 1

OS:Schedule:Day,
  {bafba5d1-b50a-4bca-9c8d-162063147af0}, !- Handle
  0800|1700|Laboratory|default|hoo Winter Design Day, !- Name
  {9dfd1454-14cf-4eb4-915c-c12edbcdb869}, !- Schedule Type Limits Name
  ,                                       !- Interpolate to Timestep
  24,                                     !- Hour 1
  0,                                      !- Minute 1
  0;                                      !- Value Until Time 1

OS:Schedule:Day,
  {85a3add0-220a-43c2-a3b1-69715de6196c}, !- Handle
  Schedule Day 3,                         !- Name
  ,                                       !- Schedule Type Limits Name
  ,                                       !- Interpolate to Timestep
  24,                                     !- Hour 1
  0,                                      !- Minute 1
  0;                                      !- Value Until Time 1

OS:Schedule:Day,
  {df4444ff-ff90-4676-9b07-da204a92abe2}, !- Handle
  0800|1700|Laboratory|default|hoo Summer Design Day, !- Name
  {9dfd1454-14cf-4eb4-915c-c12edbcdb869}, !- Schedule Type Limits Name
  ,                                       !- Interpolate to Timestep
  24,                                     !- Hour 1
  0,                                      !- Minute 1
  1;                                      !- Value Until Time 1

OS:DefaultScheduleSet,
  {ed7ea34f-b765-4a56-8b1b-e6fe6319d74d}, !- Handle
  Building Hours of Operation,            !- Name
  {144e5e0d-aa74-45b1-9f23-53c48c1201a6}, !- Hours of Operation Schedule Name
  ,                                       !- Number of People Schedule Name
  ,                                       !- People Activity Level Schedule Name
  ,                                       !- Lighting Schedule Name
  ,                                       !- Electric Equipment Schedule Name
  ,                                       !- Gas Equipment Schedule Name
  ,                                       !- Hot Water Equipment Schedule Name
  ,                                       !- Infiltration Schedule Name
  ,                                       !- Steam Equipment Schedule Name
  ;                                       !- Other Equipment Schedule Name

OS:ScheduleTypeLimits,
  {9dfd1454-14cf-4eb4-915c-c12edbcdb869}, !- Handle
  OnOff,                                  !- Name
  0,                                      !- Lower Limit Value {BasedOnField A4}
  1,                                      !- Upper Limit Value {BasedOnField A4}
  Discrete,                               !- Numeric Type
  Availability;                           !- Unit Type

OS:Schedule:Ruleset,
  {fe6a8be7-1c66-45d2-8273-eee4615dbd7f}, !- Handle
  0800|1700|Laboratory|default|elec_equip, !- Name
  {f9b41751-f81c-44f1-8182-79ac4cd0d682}, !- Schedule Type Limits Name
  {02793437-a540-47a3-a0c1-944a8f449cb2}, !- Default Day Schedule Name
  {9fdefecb-6720-45e6-9ccb-6d7ea66e95c8}, !- Summer Design Day Schedule Name
  {6a2f7252-6ac4-4d21-9785-f6368cad2150}; !- Winter Design Day Schedule Name

OS:ScheduleTypeLimits,
  {f9b41751-f81c-44f1-8182-79ac4cd0d682}, !- Handle
  Equipment Schedule Type Limits,         !- Name
  0,                                      !- Lower Limit Value {BasedOnField A4}
  1,                                      !- Upper Limit Value {BasedOnField A4}
  Continuous,                             !- Numeric Type
  Dimensionless;                          !- Unit Type

OS:Schedule:Day,
  {02793437-a540-47a3-a0c1-944a8f449cb2}, !- Handle
  0800|1700|Laboratory|default|elec_equip |default, !- Name
  {f9b41751-f81c-44f1-8182-79ac4cd0d682}, !- Schedule Type Limits Name
  ,                                       !- Interpolate to Timestep
  8,                                      !- Hour 1
  0,                                      !- Minute 1
  0.4,                                    !- Value Until Time 1
  12,                                     !- Hour 2
  0,                                      !- Minute 2
  0.9,                                    !- Value Until Time 2
  13,                                     !- Hour 3
  0,                                      !- Minute 3
  0.8,                                    !- Value Until Time 3
  16,                                     !- Hour 4
  0,                                      !- Minute 4
  0.9,                                    !- Value Until Time 4
  16,                                     !- Hour 5
  30,                                     !- Minute 5
  0.8,                                    !- Value Until Time 5
  17,                                     !- Hour 6
  0,                                      !- Minute 6
  0.7,                                    !- Value Until Time 6
  17,                                     !- Hour 7
  30,                                     !- Minute 7
  0.6,                                    !- Value Until Time 7
  18,                                     !- Hour 8
  0,                                      !- Minute 8
  0.5,                                    !- Value Until Time 8
  18,                                     !- Hour 9
  30,                                     !- Minute 9
  0.49,                                   !- Value Until Time 9
  19,                                     !- Hour 10
  0,                                      !- Minute 10
  0.48,                                   !- Value Until Time 10
  19,                                     !- Hour 11
  30,                                     !- Minute 11
  0.47,                                   !- Value Until Time 11
  20,                                     !- Hour 12
  0,                                      !- Minute 12
  0.46,                                   !- Value Until Time 12
  20,                                     !- Hour 13
  30,                                     !- Minute 13
  0.45,                                   !- Value Until Time 13
  21,                                     !- Hour 14
  0,                                      !- Minute 14
  0.44,                                   !- Value Until Time 14
  21,                                     !- Hour 15
  30,                                     !- Minute 15
  0.43,                                   !- Value Until Time 15
  22,                                     !- Hour 16
  0,                                      !- Minute 16
  0.42,                                   !- Value Until Time 16
  22,                                     !- Hour 17
  30,                                     !- Minute 17
  0.41,                                   !- Value Until Time 17
  24,                                     !- Hour 18
  0,                                      !- Minute 18
  0.4;                                    !- Value Until Time 18

OS:Schedule:Day,
  {9fdefecb-6720-45e6-9ccb-6d7ea66e95c8}, !- Handle
  0800|1700|Laboratory|default|elec_equip Summer Design Day, !- Name
  {f9b41751-f81c-44f1-8182-79ac4cd0d682}, !- Schedule Type Limits Name
  ,                                       !- Interpolate to Timestep
  24,                                     !- Hour 1
  0,                                      !- Minute 1
  1;                                      !- Value Until Time 1

OS:Schedule:Day,
  {6a2f7252-6ac4-4d21-9785-f6368cad2150}, !- Handle
  0800|1700|Laboratory|default|elec_equip Winter Design Day, !- Name
  {f9b41751-f81c-44f1-8182-79ac4cd0d682}, !- Schedule Type Limits Name
  ,                                       !- Interpolate to Timestep
  24,                                     !- Hour 1
  0,                                      !- Minute 1
  0.4;                                    !- Value Until Time 1

OS:Schedule:Rule,
  {b6c0276a-2fcb-481a-b482-3828562905c4}, !- Handle
  0800|1700|Laboratory|default|elec_equip |1/1-12/31|Sun Rule, !- Name
  {fe6a8be7-1c66-45d2-8273-eee4615dbd7f}, !- Schedule Ruleset Name
  0,                                      !- Rule Order
  {3acc0077-784d-449a-976f-80d12fa6af5f}, !- Day Schedule Name
  Yes,                                    !- Apply Sunday
  ,                                       !- Apply Monday
  ,                                       !- Apply Tuesday
  ,                                       !- Apply Wednesday
  ,                                       !- Apply Thursday
  ,                                       !- Apply Friday
  ,                                       !- Apply Saturday
  ,                                       !- Apply Holiday
  DateRange,                              !- Date Specification Type
  1,                                      !- Start Month
  1,                                      !- Start Day
  12,                                     !- End Month
  31;                                     !- End Day

OS:Schedule:Day,
  {3acc0077-784d-449a-976f-80d12fa6af5f}, !- Handle
  0800|1700|Laboratory|default|elec_equip |1/1-12/31|Sun, !- Name
  {f9b41751-f81c-44f1-8182-79ac4cd0d682}, !- Schedule Type Limits Name
  ,                                       !- Interpolate to Timestep
  24,                                     !- Hour 1
  0,                                      !- Minute 1
  0.3;                                    !- Value Until Time 1

OS:Schedule:Rule,
  {02f4dae8-9397-4c1e-b515-7c5207be973f}, !- Handle
  0800|1700|Laboratory|default|elec_equip |1/1-12/31|Sat Rule, !- Name
  {fe6a8be7-1c66-45d2-8273-eee4615dbd7f}, !- Schedule Ruleset Name
  1,                                      !- Rule Order
  {65a7a47b-ce8b-4f12-914c-dae7e233c1c8}, !- Day Schedule Name
  ,                                       !- Apply Sunday
  ,                                       !- Apply Monday
  ,                                       !- Apply Tuesday
  ,                                       !- Apply Wednesday
  ,                                       !- Apply Thursday
  ,                                       !- Apply Friday
  Yes,                                    !- Apply Saturday
  ,                                       !- Apply Holiday
  DateRange,                              !- Date Specification Type
  1,                                      !- Start Month
  1,                                      !- Start Day
  12,                                     !- End Month
  31;                                     !- End Day

OS:Schedule:Day,
  {65a7a47b-ce8b-4f12-914c-dae7e233c1c8}, !- Handle
  0800|1700|Laboratory|default|elec_equip |1/1-12/31|Sat, !- Name
  {f9b41751-f81c-44f1-8182-79ac4cd0d682}, !- Schedule Type Limits Name
  ,                                       !- Interpolate to Timestep
  5,                                      !- Hour 1
  0,                                      !- Minute 1
  0.3,                                    !- Value Until Time 1
  5,                                      !- Hour 2
  30,                                     !- Minute 2
  0.33,                                   !- Value Until Time 2
  6,                                      !- Hour 3
  0,                                      !- Minute 3
  0.37,                                   !- Value Until Time 3
  6,                                      !- Hour 4
  30,                                     !- Minute 4
  0.4,                                    !- Value Until Time 4
  7,                                      !- Hour 5
  0,                                      !- Minute 5
  0.43,                                   !- Value Until Time 5
  7,                                      !- Hour 6
  30,                                     !- Minute 6
  0.47,                                   !- Value Until Time 6
  13,                                     !- Hour 7
  0,                                      !- Minute 7
  0.5,                                    !- Value Until Time 7
  13,                                     !- Hour 8
  30,                                     !- Minute 8
  0.48,                                   !- Value Until Time 8
  14,                                     !- Hour 9
  0,                                      !- Minute 9
  0.46,                                   !- Value Until Time 9
  14,                                     !- Hour 10
  30,                                     !- Minute 10
  0.44,                                   !- Value Until Time 10
  15,                                     !- Hour 11
  0,                                      !- Minute 11
  0.42,                                   !- Value Until Time 11
  15,                                     !- Hour 12
  30,                                     !- Minute 12
  0.4,                                    !- Value Until Time 12
  16,                                     !- Hour 13
  0,                                      !- Minute 13
  0.38,                                   !- Value Until Time 13
  16,                                     !- Hour 14
  30,                                     !- Minute 14
  0.36,                                   !- Value Until Time 14
  17,                                     !- Hour 15
  0,                                      !- Minute 15
  0.34,                                   !- Value Until Time 15
  17,                                     !- Hour 16
  30,                                     !- Minute 16
  0.32,                                   !- Value Until Time 16
  24,                                     !- Hour 17
  0,                                      !- Minute 17
  0.3;                                    !- Value Until Time 17

OS:Schedule:Ruleset,
  {a668db88-c450-4328-b4f0-5192c0465c2b}, !- Handle
  0800|1700|Laboratory|default|htg_setpoint, !- Name
  {485ac51e-f037-41dd-a6a8-bed9449913dd}, !- Schedule Type Limits Name
  {7866ecea-cb5f-4da3-9960-782583a76641}, !- Default Day Schedule Name
  {b7551324-b7b3-4d3f-9470-5f5c19d6675c}, !- Summer Design Day Schedule Name
  {7b4ca4fb-9c7a-4b19-b02c-b265734518e4}; !- Winter Design Day Schedule Name

OS:ScheduleTypeLimits,
  {485ac51e-f037-41dd-a6a8-bed9449913dd}, !- Handle
  Thermostat Heating Setpoint Schedule Type Limits, !- Name
  0,                                      !- Lower Limit Value {BasedOnField A4}
  100,                                    !- Upper Limit Value {BasedOnField A4}
  Continuous,                             !- Numeric Type
  Temperature;                            !- Unit Type

OS:Schedule:Day,
  {7866ecea-cb5f-4da3-9960-782583a76641}, !- Handle
  0800|1700|Laboratory|default|htg_setpoint |default, !- Name
  {485ac51e-f037-41dd-a6a8-bed9449913dd}, !- Schedule Type Limits Name
  ,                                       !- Interpolate to Timestep
  24,                                     !- Hour 1
  0,                                      !- Minute 1
  21.0000000000001;                       !- Value Until Time 1

OS:Schedule:Day,
  {b7551324-b7b3-4d3f-9470-5f5c19d6675c}, !- Handle
  0800|1700|Laboratory|default|htg_setpoint Summer Design Day, !- Name
  {485ac51e-f037-41dd-a6a8-bed9449913dd}, !- Schedule Type Limits Name
  ,                                       !- Interpolate to Timestep
  24,                                     !- Hour 1
  0,                                      !- Minute 1
  21.0000000000001;                       !- Value Until Time 1

OS:Schedule:Day,
  {7b4ca4fb-9c7a-4b19-b02c-b265734518e4}, !- Handle
  0800|1700|Laboratory|default|htg_setpoint Winter Design Day, !- Name
  {485ac51e-f037-41dd-a6a8-bed9449913dd}, !- Schedule Type Limits Name
  ,                                       !- Interpolate to Timestep
  24,                                     !- Hour 1
  0,                                      !- Minute 1
  21.0000000000001;                       !- Value Until Time 1

OS:Schedule:Rule,
  {8b10c1fd-9586-4fc2-ad34-d8c5ba86090f}, !- Handle
  0800|1700|Laboratory|default|htg_setpoint |1/1-12/31|Sun Rule, !- Name
  {a668db88-c450-4328-b4f0-5192c0465c2b}, !- Schedule Ruleset Name
  0,                                      !- Rule Order
  {95813fa9-585e-4e0b-8652-a395ebf33d3c}, !- Day Schedule Name
  Yes,                                    !- Apply Sunday
  ,                                       !- Apply Monday
  ,                                       !- Apply Tuesday
  ,                                       !- Apply Wednesday
  ,                                       !- Apply Thursday
  ,                                       !- Apply Friday
  ,                                       !- Apply Saturday
  ,                                       !- Apply Holiday
  DateRange,                              !- Date Specification Type