
OS:Version,
  {e07c8fcc-aa0e-4037-ac53-02d4012553ce}, !- Handle
  1.5.5;                                  !- Version Identifier

OS:ClimateZones,
  {135edfab-17e7-40db-a436-27d385a8cd6d}, !- Handle
  ,                                       !- Active Institution
  ,                                       !- Active Year
  ASHRAE,                                 !- Climate Zone Institution Name 1
  ANSI/ASHRAE Standard 169,               !- Climate Zone Document Name 1
  2006,                                   !- Climate Zone Document Year 1
  ,                                       !- Climate Zone Value 1
  CEC,                                    !- Climate Zone Institution Name 2
  California Climate Zone Descriptions,   !- Climate Zone Document Name 2
  1995,                                   !- Climate Zone Document Year 2
  ;                                       !- Climate Zone Value 2

OS:YearDescription,
  {513d8dda-86cb-442a-b01c-1f7f0e0ac70e}; !- Handle

OS:RadianceParameters,
  {270a96f1-3c86-4b75-a667-cdf22790e2c8}, !- Handle
  1,                                      !- Accumulated Rays per Record
  0,                                      !- Direct Threshold
  1,                                      !- Direct Certainty
  1,                                      !- Direct Jitter
  1,                                      !- Direct Pretest
  6,                                      !- Ambient Bounces VMX
  2,                                      !- Ambient Bounces DMX
  4050,                                   !- Ambient Divisions VMX
  512,                                    !- Ambient Divisions DMX
  256,                                    !- Ambient Supersamples
  0.001,                                  !- Limit Weight VMX
  0.001,                                  !- Limit Weight DMX
  500,                                    !- Klems Sampling Density
  146;                                    !- Sky Discretization Resolution

OS:SimulationControl,
  {2c487a4c-bac9-4ac5-b669-1e49d9da7c2b}, !- Handle
  ,                                       !- Do Zone Sizing Calculation
  ,                                       !- Do System Sizing Calculation
  ,                                       !- Do Plant Sizing Calculation
  No,                                     !- Run Simulation for Sizing Periods
  ,                                       !- Run Simulation for Weather File Run Periods
  0.04,                                   !- Loads Convergence Tolerance Value
  ,                                       !- Temperature Convergence Tolerance Value {deltaC}
  ,                                       !- Solar Distribution
  ,                                       !- Maximum Number of Warmup Days
  2;                                      !- Minimum Number of Warmup Days

OS:Sizing:Parameters,
  {dde5af6f-7923-4600-a28a-7556673a0266}, !- Handle
  1.25,                                   !- Heating Sizing Factor
  1.15;                                   !- Cooling Sizing Factor

OS:ProgramControl,
  {05027a99-f2b3-4aeb-afc6-1425fbb4371d}; !- Handle

OS:Timestep,
  {4ebc9f1e-4707-402e-9844-67eb1ffbd522}, !- Handle
  2;                                      !- Number of Timesteps per Hour

OS:OutputControl:ReportingTolerances,
  {65797aa2-06a9-45fe-b69d-bc6e060399d3}; !- Handle

OS:ConvergenceLimits,
  {9fc11aba-8822-4f3d-970c-46391ba4040d}; !- Handle

OS:ShadowCalculation,
  {ca758bea-4416-4626-9bba-3d8795c79bd6}, !- Handle
  7,                                      !- Calculation Frequency
  15000;                                  !- Maximum Figures in Shadow Overlap Calculations

OS:SurfaceConvectionAlgorithm:Inside,
  {aaabfc36-718a-4ab0-b622-f186ebb45230}, !- Handle
  TARP;                                   !- Algorithm

OS:SurfaceConvectionAlgorithm:Outside,
  {9a0a9f6f-4bbd-4b12-a121-9492a1fcd7d6}, !- Handle
  DOE-2;                                  !- Algorithm

OS:HeatBalanceAlgorithm,
  {9d93e563-e1e0-46d7-9e39-d1c8aceb7212}, !- Handle
  ConductionTransferFunction,             !- Algorithm
  200;                                    !- Surface Temperature Upper Limit {F}

OS:ZoneAirHeatBalanceAlgorithm,
  {8520d93e-310f-4696-9bcd-36228bfdd743}, !- Handle
  AnalyticalSolution;                     !- Algorithm

OS:ZoneAirContaminantBalance,
  {eb5fc3ae-fb22-4160-8fcb-3e3b22b000d3}; !- Handle

OS:ZoneCapacitanceMultiplier:ResearchSpecial,
  {4020ce4f-5a7a-4849-8028-8305d7b751b1}, !- Handle
  ,                                       !- Temperature Capacity Multiplier
  ,                                       !- Humidity Capacity Multiplier
  ;                                       !- Carbon Dioxide Capacity Multiplier

OS:RunPeriod,
  {28df894d-6af9-4fb8-8f56-df1753344aa3}, !- Handle
  Run Period 1,                           !- Name
  1,                                      !- Begin Month
  1,                                      !- Begin Day of Month
  12,                                     !- End Month
  31,                                     !- End Day of Month
  ,                                       !- Use Weather File Holidays and Special Days
  ,                                       !- Use Weather File Daylight Saving Period
  ,                                       !- Apply Weekend Holiday Rule
  ,                                       !- Use Weather File Rain Indicators
  ,                                       !- Use Weather File Snow Indicators
  ;                                       !- Number of Times Runperiod to be Repeated

OS:Building,
  {bf305633-c5a1-4881-9edf-ca5e1a8e1274}, !- Handle
  Building 1,                             !- Name
  ,                                       !- Building Sector Type
  ,                                       !- North Axis {deg}
  ,                                       !- Nominal Floor to Floor Height {m}
  ,                                       !- Space Type Name
  ,                                       !- Default Construction Set Name
  {f351362a-c60a-4b64-8a87-f327c7899c66}, !- Default Schedule Set Name
  ,                                       !- Standards Number of Stories
  ,                                       !- Standards Number of Above Ground Stories
  Laboratory;                             !- Standards Building Type

OS:LifeCycleCost:Parameters,
  {231cf8a0-f0e7-4251-a99f-11f0d464e661}, !- Handle
  FEMP,                                   !- Analysis Type
  ,                                       !- Discounting Convention
  ,                                       !- Inflation Approach
  ,                                       !- Real Discount Rate
  ,                                       !- Nominal Discount Rate
  ,                                       !- Inflation
  ,                                       !- Base Date Month
  ,                                       !- Base Date Year
  ,                                       !- Service Date Month
  ,                                       !- Service Date Year
  ,                                       !- Length of Study Period in Years
  ,                                       !- Tax Rate
  ,                                       !- Depreciation Method
  Yes;                                    !- Use NIST Fuel Escalation Rates

OS:Facility,
  {3ba8e45b-b833-44eb-a723-ea6c3946dc96}; !- Handle

OS:SpaceType,
  {bb50f909-db56-41fe-9f3d-a0cf357acab1}, !- Handle
  Laboratory|BlendOff|DOE Ref 2004|ASHRAE 169-2006-5A, !- Name
  {703578c8-d28a-4cc6-b253-7415a060caf3}, !- Default Construction Set Name
  ,                                       !- Default Schedule Set Name
  {44a5ea5d-5455-4959-bbf9-82091724c278}, !- Group Rendering Name
  {90dcc7c4-76ae-4967-86b3-caa249e4c74f}, !- Design Specification Outdoor Air Object Name
  Laboratory,                             !- Standards Building Type
  BlendOff;                               !- Standards Space Type

OS:Rendering:Color,
  {44a5ea5d-5455-4959-bbf9-82091724c278}, !- Handle
  Rendering Color 1,                      !- Name
  120,                                    !- Rendering Red Value
  230,                                    !- Rendering Green Value
  199;                                    !- Rendering Blue Value

OS:SpaceType,
  {cafbdcac-642b-4715-b37e-287bec313ca7}, !- Handle
  Laboratory|Lab|DOE Ref 2004|ASHRAE 169-2006-5A, !- Name
  {703578c8-d28a-4cc6-b253-7415a060caf3}, !- Default Construction Set Name
  {83531961-59b8-4699-a0d7-489afd2fd53e}, !- Default Schedule Set Name
  {fd23301e-2d5c-4f7a-94d8-d32c30ec74ab}, !- Group Rendering Name
  {50465592-fc86-4da7-ae0d-de3662e30668}, !- Design Specification Outdoor Air Object Name
  Laboratory,                             !- Standards Building Type
  Lab;                                    !- Standards Space Type

OS:Rendering:Color,
  {fd23301e-2d5c-4f7a-94d8-d32c30ec74ab}, !- Handle
  Rendering Color 2,                      !- Name
  204,                                    !- Rendering Red Value
  120,                                    !- Rendering Green Value
  230;                                    !- Rendering Blue Value

OS:SpaceType,
  {36f9f3e7-cdbe-41f2-af55-4f5741d4e78b}, !- Handle
  Laboratory|BlendCirc|DOE Ref 2004|ASHRAE 169-2006-5A, !- Name
  {703578c8-d28a-4cc6-b253-7415a060caf3}, !- Default Construction Set Name
  ,                                       !- Default Schedule Set Name
  {43c33a4b-267d-483a-a470-4548c141a38b}, !- Group Rendering Name
  {a8cb5e2b-14cf-49b5-b510-372823d31534}, !- Design Specification Outdoor Air Object Name
  Laboratory,                             !- Standards Building Type
  BlendCirc;                              !- Standards Space Type

OS:Rendering:Color,
  {43c33a4b-267d-483a-a470-4548c141a38b}, !- Handle
  Rendering Color 3,                      !- Name
  120,                                    !- Rendering Red Value
  149,                                    !- Rendering Green Value
  230;                                    !- Rendering Blue Value

OS:SpaceType,
  {0cfef2d5-ecd2-4909-8e2c-b68b0a4580a3}, !- Handle
  Laboratory|BlendMisc|DOE Ref 2004|ASHRAE 169-2006-5A, !- Name
  {703578c8-d28a-4cc6-b253-7415a060caf3}, !- Default Construction Set Name
  ,                                       !- Default Schedule Set Name
  {a21f6581-95c2-4305-9c9c-054787ec60a4}, !- Group Rendering Name
  {1302ced7-85b8-4724-a392-a7f55cfab471}, !- Design Specification Outdoor Air Object Name
  Laboratory,                             !- Standards Building Type
  BlendMisc;                              !- Standards Space Type

OS:Rendering:Color,
  {a21f6581-95c2-4305-9c9c-054787ec60a4}, !- Handle
  Rendering Color 4,                      !- Name
  41,                                     !- Rendering Red Value
  31,                                     !- Rendering Green Value
  169;                                    !- Rendering Blue Value

OS:SpaceType,
  {1b30e6af-af8b-4bc3-9fab-3b788973f4cd}, !- Handle
  Laboratory|Restroom|DOE Ref 2004|ASHRAE 169-2006-5A, !- Name
  {703578c8-d28a-4cc6-b253-7415a060caf3}, !- Default Construction Set Name
  {516c75d9-aed5-4634-b765-fd14a916adbb}, !- Default Schedule Set Name
  {e6e9d6a7-540e-4105-81cd-b12ff97acd46}, !- Group Rendering Name
  {b4dc7e1b-12db-4af9-a31d-7a6df8e52da1}, !- Design Specification Outdoor Air Object Name
  Laboratory,                             !- Standards Building Type
  Restroom;                               !- Standards Space Type

OS:Rendering:Color,
  {e6e9d6a7-540e-4105-81cd-b12ff97acd46}, !- Handle
  Rendering Color 5,                      !- Name
  169,                                    !- Rendering Red Value
  169,                                    !- Rendering Green Value
  31;                                     !- Rendering Blue Value

OS:Schedule:Ruleset,
  {b787deeb-06d0-4911-b407-93d1431805a1}, !- Handle
  0800|1700|Laboratory|default|hoo,       !- Name
  {e3586e4b-79c1-4235-9790-1fba63cc8f5c}, !- Schedule Type Limits Name
  {d2f787f9-c57e-4244-91be-16cfa99ee544}, !- Default Day Schedule Name
  {72961124-51f7-442c-9af1-e9b34465b81c}, !- Summer Design Day Schedule Name
  {bd136ae9-fada-46f2-94ba-0ebe16fb2ea4}; !- Winter Design Day Schedule Name

OS:Schedule:Day,
  {d2f787f9-c57e-4244-91be-16cfa99ee544}, !- Handle
  0800|1700|Laboratory|default|hoo Schedule Week Day, !- Name
  {e3586e4b-79c1-4235-9790-1fba63cc8f5c}, !- Schedule Type Limits Name
  ,                                       !- Interpolate to Timestep
  8,                                      !- Hour 1
  0,                                      !- Minute 1
  0,                                      !- Value Until Time 1
  17,                                     !- Hour 2
  0,                                      !- Minute 2
  1,                                      !- Value Until Time 2
  24,                                     !- Hour 3
  0,                                      !- Minute 3
  0;                                      !- Value Until Time 3

OS:Schedule:Day,
  {56504ade-9b0a-484b-a86f-611dfdd8b1fb}, !- Handle
  Schedule Day 2,                         !- Name
  ,                                       !- Schedule Type Limits Name
  ,                                       !- Interpolate to Timestep
  24,                                     !- Hour 1
  0,                                      !- Minute 1
  0;                                      !- Value Until Time 1

OS:Schedule:Day,
  {bd136ae9-fada-46f2-94ba-0ebe16fb2ea4}, !- Handle
  0800|1700|Laboratory|default|hoo Winter Design Day, !- Name
  {e3586e4b-79c1-4235-9790-1fba63cc8f5c}, !- Schedule Type Limits Name
  ,                                       !- Interpolate to Timestep
  24,                                     !- Hour 1
  0,                                      !- Minute 1
  0;                                      !- Value Until Time 1

OS:Schedule:Day,
  {529a5960-1f76-48a8-a914-c59ae263e5a8}, !- Handle
  Schedule Day 3,                         !- Name
  ,                                       !- Schedule Type Limits Name
  ,                                       !- Interpolate to Timestep
  24,                                     !- Hour 1
  0,                                      !- Minute 1
  0;                                      !- Value Until Time 1

OS:Schedule:Day,
  {72961124-51f7-442c-9af1-e9b34465b81c}, !- Handle
  0800|1700|Laboratory|default|hoo Summer Design Day, !- Name
  {e3586e4b-79c1-4235-9790-1fba63cc8f5c}, !- Schedule Type Limits Name
  ,                                       !- Interpolate to Timestep
  24,                                     !- Hour 1
  0,                                      !- Minute 1
  1;                                      !- Value Until Time 1

OS:DefaultScheduleSet,
  {f351362a-c60a-4b64-8a87-f327c7899c66}, !- Handle
  Building Hours of Operation,            !- Name
  {b787deeb-06d0-4911-b407-93d1431805a1}, !- Hours of Operation Schedule Name
  ,                                       !- Number of People Schedule Name
  ,                                       !- People Activity Level Schedule Name
  ,                                       !- Lighting Schedule Name
  ,                                       !- Electric Equipment Schedule Name
  ,                                       !- Gas Equipment Schedule Name
  ,                                       !- Hot Water Equipment Schedule Name
  ,                                       !- Infiltration Schedule Name
  ,                                       !- Steam Equipment Schedule Name
  ;                                       !- Other Equipment Schedule Name

OS:ScheduleTypeLimits,
  {e3586e4b-79c1-4235-9790-1fba63cc8f5c}, !- Handle
  OnOff,                                  !- Name
  0,                                      !- Lower Limit Value {BasedOnField A4}
  1,                                      !- Upper Limit Value {BasedOnField A4}
  Discrete,                               !- Numeric Type
  Availability;                           !- Unit Type

OS:Schedule:Ruleset,
  {54ebbe3b-4db8-4d9c-a616-a63660ca66a4}, !- Handle
  0800|1700|Laboratory|default|htg_setpoint, !- Name
  {fae20019-6b1e-42d2-8662-55735bdb12b0}, !- Schedule Type Limits Name
  {68220034-85c3-449a-b819-fba5edd51d4f}, !- Default Day Schedule Name
  {4cfcb562-3935-4929-b4dc-9867cabd9e59}, !- Summer Design Day Schedule Name
  {b0674b23-2c32-40be-9b73-d39f855cc6e8}; !- Winter Design Day Schedule Name

OS:ScheduleTypeLimits,
  {fae20019-6b1e-42d2-8662-55735bdb12b0}, !- Handle
  Thermostat Heating Setpoint Schedule Type Limits, !- Name
  0,                                      !- Lower Limit Value {BasedOnField A4}
  100,                                    !- Upper Limit Value {BasedOnField A4}
  Continuous,                             !- Numeric Type
  Temperature;                            !- Unit Type

OS:Schedule:Day,
  {68220034-85c3-449a-b819-fba5edd51d4f}, !- Handle
  0800|1700|Laboratory|default|htg_setpoint |default, !- Name
  {fae20019-6b1e-42d2-8662-55735bdb12b0}, !- Schedule Type Limits Name
  ,                                       !- Interpolate to Timestep
  24,                                     !- Hour 1
  0,                                      !- Minute 1
  21.0000000000001;                       !- Value Until Time 1

OS:Schedule:Day,
  {4cfcb562-3935-4929-b4dc-9867cabd9e59}, !- Handle
  0800|1700|Laboratory|default|htg_setpoint Summer Design Day, !- Name
  {fae20019-6b1e-42d2-8662-55735bdb12b0}, !- Schedule Type Limits Name
  ,                                       !- Interpolate to Timestep
  24,                                     !- Hour 1
  0,                                      !- Minute 1
  21.0000000000001;                       !- Value Until Time 1

OS:Schedule:Day,
  {b0674b23-2c32-40be-9b73-d39f855cc6e8}, !- Handle
  0800|1700|Laboratory|default|htg_setpoint Winter Design Day, !- Name
  {fae20019-6b1e-42d2-8662-55735bdb12b0}, !- Schedule Type Limits Name
  ,                                       !- Interpolate to Timestep
  24,                                     !- Hour 1
  0,                                      !- Minute 1
  21.0000000000001;                       !- Value Until Time 1

OS:Schedule:Rule,
  {3a94a5fc-8ee7-48c0-a406-452ec341776a}, !- Handle
  0800|1700|Laboratory|default|htg_setpoint |1/1-12/31|Sun Rule, !- Name
  {54ebbe3b-4db8-4d9c-a616-a63660ca66a4}, !- Schedule Ruleset Name
  0,                                      !- Rule Order
  {3c17eea7-d025-4d1b-acbd-e3614c65ea2e}, !- Day Schedule Name
  Yes,                                    !- Apply Sunday
  ,                                       !- Apply Monday
  ,                                       !- Apply Tuesday
  ,                                       !- Apply Wednesday
  ,                                       !- Apply Thursday
  ,                                       !- Apply Friday
  ,                                       !- Apply Saturday
  ,                                       !- Apply Holiday
  DateRange,                              !- Date Specification Type
  1,                                      !- Start Month
  1,                                      !- Start Day
  12,                                     !- End Month
  31;                                     !- End Day

OS:Schedule:Day,
  {3c17eea7-d025-4d1b-acbd-e3614c65ea2e}, !- Handle
  0800|1700|Laboratory|default|htg_setpoint |1/1-12/31|Sun, !- Name
  {fae20019-6b1e-42d2-8662-55735bdb12b0}, !- Schedule Type Limits Name
  ,                                       !- Interpolate to Timestep
  24,                                     !- Hour 1
  0,                                      !- Minute 1
  21.0000000000001;                       !- Value Until Time 1

OS:Schedule:Rule,
  {4abc4c37-9723-44c9-a81d-895f5f11ff2a}, !- Handle
  0800|1700|Laboratory|default|htg_setpoint |1/1-12/31|Sat Rule, !- Name
  {54ebbe3b-4db8-4d9c-a616-a63660ca66a4}, !- Schedule Ruleset Name
  1,                                      !- Rule Order
  {3e92745a-1700-4488-8462-7fe5369e5e1d}, !- Day Schedule Name
  ,                                       !- Apply Sunday
  ,                                       !- Apply Monday
  ,                                       !- Apply Tuesday
  ,                                       !- Apply Wednesday
  ,                                       !- Apply Thursday
  ,                                       !- Apply Friday
  Yes,                                    !- Apply Saturday
  ,                                       !- Apply Holiday
  DateRange,                              !- Date Specification Type
  1,                                      !- Start Month
  1,                                      !- Start Day
  12,                                     !- End Month
  31;                                     !- End Day

OS:Schedule:Day,
  {3e92745a-1700-4488-8462-7fe5369e5e1d}, !- Handle
  0800|1700|Laboratory|default|htg_setpoint |1/1-12/31|Sat, !- Name
  {fae20019-6b1e-42d2-8662-55735bdb12b0}, !- Schedule Type Limits Name
  ,                                       !- Interpolate to Timestep
  24,                                     !- Hour 1
  0,                                      !- Minute 1
  21.0000000000001;                       !- Value Until Time 1

OS:Schedule:Ruleset,
  {20c6f77f-8b1e-42f7-8bb7-3048ab59b70e}, !- Handle
  0800|1700|Laboratory|default|clothing,  !- Name
  {8580f551-e044-41a5-97ff-1252e4d508be}, !- Schedule Type Limits Name
  {d878cbcc-b72c-43f0-a2a6-be61cf811772}, !- Default Day Schedule Name
  {87169087-410b-46a4-af95-e23a4663ee1e}, !- Summer Design Day Schedule Name
  {a6e05528-3857-4bd4-97b6-7fa9608d0cb6}; !- Winter Design Day Schedule Name

OS:ScheduleTypeLimits,
  {8580f551-e044-41a5-97ff-1252e4d508be}, !- Handle
  Dimensionless Schedule Type Limits,     !- Name
  ,                                       !- Lower Limit Value {BasedOnField A4}
  ,                                       !- Upper Limit Value {BasedOnField A4}
  Continuous,                             !- Numeric Type
  Dimensionless;                          !- Unit Type

OS:Schedule:Day,
  {d878cbcc-b72c-43f0-a2a6-be61cf811772}, !- Handle
  0800|1700|Laboratory|default|clothing |default, !- Name
  {8580f551-e044-41a5-97ff-1252e4d508be}, !- Schedule Type Limits Name
  ,                                       !- Interpolate to Timestep
  24,                                     !- Hour 1
  0,                                      !- Minute 1
  0.9;                                    !- Value Until Time 1

OS:Schedule:Day,
  {87169087-410b-46a4-af95-e23a4663ee1e}, !- Handle
  0800|1700|Laboratory|default|clothing Summer Design Day, !- Name
  {8580f551-e044-41a5-97ff-1252e4d508be}, !- Schedule Type Limits Name
  ,                                       !- Interpolate to Timestep
  24,                                     !- Hour 1
  0,                                      !- Minute 1
  0.9;                                    !- Value Until Time 1

OS:Schedule:Day,
  {a6e05528-3857-4bd4-97b6-7fa9608d0cb6}, !- Handle
  0800|1700|Laboratory|default|clothing Winter Design Day, !- Name
  {8580f551-e044-41a5-97ff-1252e4d508be}, !- Schedule Type Limits Name
  ,                                       !- Interpolate to Timestep
  24,                                     !- Hour 1
  0,                                      !- Minute 1
  0.9;                                    !- Value Until Time 1

OS:Schedule:Rule,
  {11905e80-d863-4479-a832-ca61f3adbfdf}, !- Handle
  0800|1700|Laboratory|default|clothing |7/1-9/30|Mon/Tue/Wed/Thu/Fri/Sat/Sun Rule, !- Name
  {20c6f77f-8b1e-42f7-8bb7-3048ab59b70e}, !- Schedule Ruleset Name
  0,                                      !- Rule Order
  {ecacdbd9-05cc-4b07-ad47-0eb14a7b276a}, !- Day Schedule Name
  Yes,                                    !- Apply Sunday
  Yes,                                    !- Apply Monday
  Yes,                                    !- Apply Tuesday
  Yes,                                    !- Apply Wednesday
  Yes,                                    !- Apply Thursday
  Yes,                                    !- Apply Friday
  Yes,                                    !- Apply Saturday
  ,                                       !- Apply Holiday
  DateRange,                              !- Date Specification Type
  7,                                      !- Start Month
  1,                                      !- Start Day
  9,                                      !- End Month
  30;                                     !- End Day

OS:Schedule:Day,
  {ecacdbd9-05cc-4b07-ad47-0eb14a7b276a}, !- Handle
  0800|1700|Laboratory|default|clothing |7/1-9/30|Mon/Tue/Wed/Thu/Fri/Sat/Sun, !- Name
  {8580f551-e044-41a5-97ff-1252e4d508be}, !- Schedule Type Limits Name
  ,                                       !- Interpolate to Timestep
  24,                                     !- Hour 1
  0,                                      !- Minute 1
  0.7;                                    !- Value Until Time 1

OS:Schedule:Rule,
  {e4d86310-abbc-473e-b7ac-54bc64b4f354}, !- Handle
  0800|1700|Laboratory|default|clothing |12/1-3/31|Mon/Tue/Wed/Thu/Fri/Sat/Sun Rule, !- Name
  {20c6f77f-8b1e-42f7-8bb7-3048ab59b70e}, !- Schedule Ruleset Name
  1,                                      !- Rule Order
  {cdac0a9c-962d-407a-9f0a-f53cd206705d}, !- Day Schedule Name
  Yes,                                    !- Apply Sunday
  Yes,                                    !- Apply Monday
  Yes,                                    !- Apply Tuesday
  Yes,                                    !- Apply Wednesday
  Yes,                                    !- Apply Thursday
  Yes,                                    !- Apply Friday
  Yes,                                    !- Apply Saturday
  ,                                       !- Apply Holiday
  DateRange,                              !- Date Specification Type
  12,                                     !- Start Month
  1,                                      !- Start Day
  3,                                      !- End Month
  31;                                     !- End Day

OS:Schedule:Day,
  {cdac0a9c-962d-407a-9f0a-f53cd206705d}, !- Handle
  0800|1700|Laboratory|default|clothing |12/1-3/31|Mon/Tue/Wed/Thu/Fri/Sat/Sun, !- Name
  {8580f551-e044-41a5-97ff-1252e4d508be}, !- Schedule Type Limits Name
  ,                                       !- Interpolate to Timestep
  24,                                     !- Hour 1
  0,                                      !- Minute 1
  1.3;                                    !- Value Until Time 1

OS:Schedule:Ruleset,
  {a0a5b3c9-64c2-4010-a273-0256d943ea34}, !- Handle
  0800|1700|Laboratory|default|air_velocity, !- Name
  {8580f551-e044-41a5-97ff-1252e4d508be}, !- Schedule Type Limits Name
  {86010554-4397-40ef-b08a-86e15fe268fb}, !- Default Day Schedule Name
  {f880dd95-0cd9-4e69-9e38-e49aeb7a86d0}, !- Summer Design Day Schedule Name
  {9f7684de-7207-4838-82de-c17efc9f2193}; !- Winter Design Day Schedule Name

OS:Schedule:Day,
  {86010554-4397-40ef-b08a-86e15fe268fb}, !- Handle
  0800|1700|Laboratory|default|air_velocity |default, !- Name
  {8580f551-e044-41a5-97ff-1252e4d508be}, !- Schedule Type Limits Name
  ,                                       !- Interpolate to Timestep
  24,                                     !- Hour 1
  0,                                      !- Minute 1
  0.200152;                               !- Value Until Time 1

OS:Schedule:Day,
  {f880dd95-0cd9-4e69-9e38-e49aeb7a86d0}, !- Handle
  0800|1700|Laboratory|default|air_velocity Summer Design Day, !- Name
  {8580f551-e044-41a5-97ff-1252e4d508be}, !- Schedule Type Limits Name
  ,                                       !- Interpolate to Timestep
  24,                                     !- Hour 1
  0,                                      !- Minute 1
  0.200152;                               !- Value Until Time 1

OS:Schedule:Day,
  {9f7684de-7207-4838-82de-c17efc9f2193}, !- Handle
  0800|1700|Laboratory|default|air_velocity Winter Design Day, !- Name
  {8580f551-e044-41a5-97ff-1252e4d508be}, !- Schedule Type Limits Name
  ,                                       !- Interpolate to Timestep
  24,                                     !- Hour 1
  0,                                      !- Minute 1
  0.200152;                               !- Value Until Time 1

OS:Schedule:Ruleset,
  {cf6aa5c4-6e16-4631-910e-15578364c5b7}, !- Handle
  0800|1700|Laboratory|default|ext_lighting, !- Name
  {60fb70f8-0667-484a-a8be-fc658d505d85}, !- Schedule Type Limits Name
  {32bb0eab-5f18-44ad-b652-a466afb23efd}, !- Default Day Schedule Name
  {b13e7359-b692-49ec-85f2-61f6f165a3e2}, !- Summer Design Day Schedule Name
  {779ac16a-ffce-4d19-ad89-9ca4c81c26c1}; !- Winter Design Day Schedule Name

OS:ScheduleTypeLimits,
  {60fb70f8-0667-484a-a8be-fc658d505d85}, !- Handle
  Lights Schedule Type Limits,            !- Name
  0,                                      !- Lower Limit Value {BasedOnField A4}
  1,                                      !- Upper Limit Value {BasedOnField A4}
  Continuous,                             !- Numeric Type
  Dimensionless;                          !- Unit Type

OS:Schedule:Day,
  {32bb0eab-5f18-44ad-b652-a466afb23efd}, !- Handle
  0800|1700|Laboratory|default|ext_lighting |default, !- Name
  {60fb70f8-0667-484a-a8be-fc658d505d85}, !- Schedule Type Limits Name
  ,                                       !- Interpolate to Timestep
  24,                                     !- Hour 1
  0,                                      !- Minute 1
  1;                                      !- Value Until Time 1

OS:Schedule:Day,
  {b13e7359-b692-49ec-85f2-61f6f165a3e2}, !- Handle
  0800|1700|Laboratory|default|ext_lighting Summer Design Day, !- Name
  {60fb70f8-0667-484a-a8be-fc658d505d85}, !- Schedule Type Limits Name
  ,                                       !- Interpolate to Timestep
  24,                                     !- Hour 1
  0,                                      !- Minute 1