
OS:Version,
  {4e5ba871-7f51-4a6c-96d6-c126602f1f77}, !- Handle
  1.6.0;                                  !- Version Identifier

OS:ClimateZones,
  {135edfab-17e7-40db-a436-27d385a8cd6d}, !- Handle
  ,                                       !- Active Institution
  ,                                       !- Active Year
  ASHRAE,                                 !- Climate Zone Institution Name 1
  ANSI/ASHRAE Standard 169,               !- Climate Zone Document Name 1
  2006,                                   !- Climate Zone Document Year 1
  ,                                       !- Climate Zone Value 1
  CEC,                                    !- Climate Zone Institution Name 2
  California Climate Zone Descriptions,   !- Climate Zone Document Name 2
  1995,                                   !- Climate Zone Document Year 2
  ;                                       !- Climate Zone Value 2

OS:YearDescription,
  {513d8dda-86cb-442a-b01c-1f7f0e0ac70e}; !- Handle

OS:RadianceParameters,
  {270a96f1-3c86-4b75-a667-cdf22790e2c8}, !- Handle
  1,                                      !- Accumulated Rays per Record
  0,                                      !- Direct Threshold
  1,                                      !- Direct Certainty
  1,                                      !- Direct Jitter
  1,                                      !- Direct Pretest
  6,                                      !- Ambient Bounces VMX
  2,                                      !- Ambient Bounces DMX
  4050,                                   !- Ambient Divisions VMX
  512,                                    !- Ambient Divisions DMX
  256,                                    !- Ambient Supersamples
  0.001,                                  !- Limit Weight VMX
  0.001,                                  !- Limit Weight DMX
  500,                                    !- Klems Sampling Density
  146;                                    !- Sky Discretization Resolution

OS:SimulationControl,
  {2c487a4c-bac9-4ac5-b669-1e49d9da7c2b}, !- Handle
  ,                                       !- Do Zone Sizing Calculation
  ,                                       !- Do System Sizing Calculation
  ,                                       !- Do Plant Sizing Calculation
  No,                                     !- Run Simulation for Sizing Periods
  ,                                       !- Run Simulation for Weather File Run Periods
  0.04,                                   !- Loads Convergence Tolerance Value
  ,                                       !- Temperature Convergence Tolerance Value {deltaC}
  ,                                       !- Solar Distribution
  ,                                       !- Maximum Number of Warmup Days
  2;                                      !- Minimum Number of Warmup Days

OS:Sizing:Parameters,
  {dde5af6f-7923-4600-a28a-7556673a0266}, !- Handle
  1.25,                                   !- Heating Sizing Factor
  1.15;                                   !- Cooling Sizing Factor

OS:ProgramControl,
  {05027a99-f2b3-4aeb-afc6-1425fbb4371d}; !- Handle

OS:Timestep,
  {4ebc9f1e-4707-402e-9844-67eb1ffbd522}, !- Handle
  2;                                      !- Number of Timesteps per Hour

OS:OutputControl:ReportingTolerances,
  {65797aa2-06a9-45fe-b69d-bc6e060399d3}; !- Handle

OS:ConvergenceLimits,
  {9fc11aba-8822-4f3d-970c-46391ba4040d}; !- Handle

OS:ShadowCalculation,
  {ca758bea-4416-4626-9bba-3d8795c79bd6}, !- Handle
  7,                                      !- Calculation Frequency
  15000;                                  !- Maximum Figures in Shadow Overlap Calculations

OS:SurfaceConvectionAlgorithm:Inside,
  {aaabfc36-718a-4ab0-b622-f186ebb45230}, !- Handle
  TARP;                                   !- Algorithm

OS:SurfaceConvectionAlgorithm:Outside,
  {9a0a9f6f-4bbd-4b12-a121-9492a1fcd7d6}, !- Handle
  DOE-2;                                  !- Algorithm

OS:HeatBalanceAlgorithm,
  {9d93e563-e1e0-46d7-9e39-d1c8aceb7212}, !- Handle
  ConductionTransferFunction,             !- Algorithm
  200;                                    !- Surface Temperature Upper Limit {F}

OS:ZoneAirHeatBalanceAlgorithm,
  {8520d93e-310f-4696-9bcd-36228bfdd743}, !- Handle
  AnalyticalSolution;                     !- Algorithm

OS:ZoneAirContaminantBalance,
  {eb5fc3ae-fb22-4160-8fcb-3e3b22b000d3}; !- Handle

OS:ZoneCapacitanceMultiplier:ResearchSpecial,
  {4020ce4f-5a7a-4849-8028-8305d7b751b1}, !- Handle
  ,                                       !- Temperature Capacity Multiplier
  ,                                       !- Humidity Capacity Multiplier
  ;                                       !- Carbon Dioxide Capacity Multiplier

OS:RunPeriod,
  {28df894d-6af9-4fb8-8f56-df1753344aa3}, !- Handle
  Run Period 1,                           !- Name
  1,                                      !- Begin Month
  1,                                      !- Begin Day of Month
  12,                                     !- End Month
  31,                                     !- End Day of Month
  ,                                       !- Use Weather File Holidays and Special Days
  ,                                       !- Use Weather File Daylight Saving Period
  ,                                       !- Apply Weekend Holiday Rule
  ,                                       !- Use Weather File Rain Indicators
  ,                                       !- Use Weather File Snow Indicators
  ;                                       !- Number of Times Runperiod to be Repeated

OS:Building,
  {bf305633-c5a1-4881-9edf-ca5e1a8e1274}, !- Handle
  Building 1,                             !- Name
  ,                                       !- Building Sector Type
  ,                                       !- North Axis {deg}
  ,                                       !- Nominal Floor to Floor Height {m}
  ,                                       !- Space Type Name
  ,                                       !- Default Construction Set Name
  {d811cce6-93d0-4a68-b3ee-572f5e7c31c2}, !- Default Schedule Set Name
  ,                                       !- Standards Number of Stories
  ,                                       !- Standards Number of Above Ground Stories
  Laboratory;                             !- Standards Building Type

OS:LifeCycleCost:Parameters,
  {231cf8a0-f0e7-4251-a99f-11f0d464e661}, !- Handle
  FEMP,                                   !- Analysis Type
  ,                                       !- Discounting Convention
  ,                                       !- Inflation Approach
  ,                                       !- Real Discount Rate
  ,                                       !- Nominal Discount Rate
  ,                                       !- Inflation
  ,                                       !- Base Date Month
  ,                                       !- Base Date Year
  ,                                       !- Service Date Month
  ,                                       !- Service Date Year
  ,                                       !- Length of Study Period in Years
  ,                                       !- Tax Rate
  ,                                       !- Depreciation Method
  Yes;                                    !- Use NIST Fuel Escalation Rates

OS:Facility,
  {3ba8e45b-b833-44eb-a723-ea6c3946dc96}; !- Handle

OS:SpaceType,
  {29b6763f-7a9b-4567-a179-b4ab8a5a0831}, !- Handle
  Laboratory|BlendOff|DOE Ref 1980-2004|ASHRAE 169-2006-5A, !- Name
  {9535c1fa-ab60-423a-840a-733412468aac}, !- Default Construction Set Name
  ,                                       !- Default Schedule Set Name
  {c0cbade6-23a6-4e4c-89d4-deb65b01b76a}, !- Group Rendering Name
  {fc458507-ce86-4400-a10e-0a0cb1b3dac1}, !- Design Specification Outdoor Air Object Name
  Laboratory,                             !- Standards Building Type
  BlendOff;                               !- Standards Space Type

OS:Rendering:Color,
  {c0cbade6-23a6-4e4c-89d4-deb65b01b76a}, !- Handle
  Rendering Color 1,                      !- Name
  120,                                    !- Rendering Red Value
  230,                                    !- Rendering Green Value
  199;                                    !- Rendering Blue Value

OS:SpaceType,
  {4aeb7283-8734-4888-b08b-a804d66c016d}, !- Handle
  Laboratory|Lab|DOE Ref 1980-2004|ASHRAE 169-2006-5A, !- Name
  {9535c1fa-ab60-423a-840a-733412468aac}, !- Default Construction Set Name
  {854a979b-99fe-4b94-9a05-35c91e1891ec}, !- Default Schedule Set Name
  {17ccd12a-afc9-46d8-bfdf-662cd7aaf95e}, !- Group Rendering Name
  {06f94214-9bfb-45fe-8896-96c17bfe04d6}, !- Design Specification Outdoor Air Object Name
  Laboratory,                             !- Standards Building Type
  Lab;                                    !- Standards Space Type

OS:Rendering:Color,
  {17ccd12a-afc9-46d8-bfdf-662cd7aaf95e}, !- Handle
  Rendering Color 2,                      !- Name
  204,                                    !- Rendering Red Value
  120,                                    !- Rendering Green Value
  230;                                    !- Rendering Blue Value

OS:SpaceType,
  {d4ff4d2e-bba6-4db2-80f0-cdae1f9e8f4f}, !- Handle
  Laboratory|BlendCirc|DOE Ref 1980-2004|ASHRAE 169-2006-5A, !- Name
  {9535c1fa-ab60-423a-840a-733412468aac}, !- Default Construction Set Name
  ,                                       !- Default Schedule Set Name
  {9df2fd3a-9ca3-4122-bc74-8ad4272ed084}, !- Group Rendering Name
  {ac184a2c-37e6-4b29-83b3-02ff9492cb56}, !- Design Specification Outdoor Air Object Name
  Laboratory,                             !- Standards Building Type
  BlendCirc;                              !- Standards Space Type

OS:Rendering:Color,
  {9df2fd3a-9ca3-4122-bc74-8ad4272ed084}, !- Handle
  Rendering Color 3,                      !- Name
  120,                                    !- Rendering Red Value
  149,                                    !- Rendering Green Value
  230;                                    !- Rendering Blue Value

OS:SpaceType,
  {f73122c2-2071-470b-95a3-f8dd91474610}, !- Handle
  Laboratory|BlendMisc|DOE Ref 1980-2004|ASHRAE 169-2006-5A, !- Name
  {9535c1fa-ab60-423a-840a-733412468aac}, !- Default Construction Set Name
  ,                                       !- Default Schedule Set Name
  {ede824e0-56a5-43c3-bc67-9973c2fbd0aa}, !- Group Rendering Name
  {10e7c642-864a-4fb1-aedd-1a50ab576e11}, !- Design Specification Outdoor Air Object Name
  Laboratory,                             !- Standards Building Type
  BlendMisc;                              !- Standards Space Type

OS:Rendering:Color,
  {ede824e0-56a5-43c3-bc67-9973c2fbd0aa}, !- Handle
  Rendering Color 4,                      !- Name
  41,                                     !- Rendering Red Value
  31,                                     !- Rendering Green Value
  169;                                    !- Rendering Blue Value

OS:SpaceType,
  {1c868d03-b2ac-446f-bccd-09253a93f9fe}, !- Handle
  Laboratory|Restroom|DOE Ref 1980-2004|ASHRAE 169-2006-5A, !- Name
  {9535c1fa-ab60-423a-840a-733412468aac}, !- Default Construction Set Name
  {f0df977b-1457-4540-bb62-f2c077de9884}, !- Default Schedule Set Name
  {545a3a9b-a51a-4569-b643-d82025df42c6}, !- Group Rendering Name
  {00076c35-56f3-492b-8486-ee0cb7c77cb8}, !- Design Specification Outdoor Air Object Name
  Laboratory,                             !- Standards Building Type
  Restroom;                               !- Standards Space Type

OS:Rendering:Color,
  {545a3a9b-a51a-4569-b643-d82025df42c6}, !- Handle
  Rendering Color 5,                      !- Name
  169,                                    !- Rendering Red Value
  169,                                    !- Rendering Green Value
  31;                                     !- Rendering Blue Value

OS:Schedule:Ruleset,
  {f8026908-c0c9-4f6e-8e94-2ecd16ee5bbb}, !- Handle
  0800|1700|Laboratory|default|hoo,       !- Name
  {df9b4a3f-5db3-44ba-b907-a8cb7ab7dbab}, !- Schedule Type Limits Name
  {974208a4-383c-4bf5-bb78-6f6b0726f73f}, !- Default Day Schedule Name
  {1970e1f8-0187-45c6-9ce3-385db6994684}, !- Summer Design Day Schedule Name
  {553149b7-bce8-4c87-851b-ef9d837beb8f}; !- Winter Design Day Schedule Name

OS:Schedule:Day,
  {974208a4-383c-4bf5-bb78-6f6b0726f73f}, !- Handle
  0800|1700|Laboratory|default|hoo Schedule Week Day, !- Name
  {df9b4a3f-5db3-44ba-b907-a8cb7ab7dbab}, !- Schedule Type Limits Name
  ,                                       !- Interpolate to Timestep
  8,                                      !- Hour 1
  0,                                      !- Minute 1
  0,                                      !- Value Until Time 1
  17,                                     !- Hour 2
  0,                                      !- Minute 2
  1,                                      !- Value Until Time 2
  24,                                     !- Hour 3
  0,                                      !- Minute 3
  0;                                      !- Value Until Time 3

OS:Schedule:Day,
  {be00b08e-9b0b-4a8e-9e1e-c95a8801c37d}, !- Handle
  Schedule Day 2,                         !- Name
  ,                                       !- Schedule Type Limits Name
  ,                                       !- Interpolate to Timestep
  24,                                     !- Hour 1
  0,                                      !- Minute 1
  0;                                      !- Value Until Time 1

OS:Schedule:Day,
  {553149b7-bce8-4c87-851b-ef9d837beb8f}, !- Handle
  0800|1700|Laboratory|default|hoo Winter Design Day, !- Name
  {df9b4a3f-5db3-44ba-b907-a8cb7ab7dbab}, !- Schedule Type Limits Name
  ,                                       !- Interpolate to Timestep
  24,                                     !- Hour 1
  0,                                      !- Minute 1
  0;                                      !- Value Until Time 1

OS:Schedule:Day,
  {3ebcf5cb-105b-4073-bcfe-bcdd851b6c0c}, !- Handle
  Schedule Day 3,                         !- Name
  ,                                       !- Schedule Type Limits Name
  ,                                       !- Interpolate to Timestep
  24,                                     !- Hour 1
  0,                                      !- Minute 1
  0;                                      !- Value Until Time 1

OS:Schedule:Day,
  {1970e1f8-0187-45c6-9ce3-385db6994684}, !- Handle
  0800|1700|Laboratory|default|hoo Summer Design Day, !- Name
  {df9b4a3f-5db3-44ba-b907-a8cb7ab7dbab}, !- Schedule Type Limits Name
  ,                                       !- Interpolate to Timestep
  24,                                     !- Hour 1
  0,                                      !- Minute 1
  1;                                      !- Value Until Time 1

OS:DefaultScheduleSet,
  {d811cce6-93d0-4a68-b3ee-572f5e7c31c2}, !- Handle
  Building Hours of Operation,            !- Name
  {f8026908-c0c9-4f6e-8e94-2ecd16ee5bbb}, !- Hours of Operation Schedule Name
  ,                                       !- Number of People Schedule Name
  ,                                       !- People Activity Level Schedule Name
  ,                                       !- Lighting Schedule Name
  ,                                       !- Electric Equipment Schedule Name
  ,                                       !- Gas Equipment Schedule Name
  ,                                       !- Hot Water Equipment Schedule Name
  ,                                       !- Infiltration Schedule Name
  ,                                       !- Steam Equipment Schedule Name
  ;                                       !- Other Equipment Schedule Name

OS:ScheduleTypeLimits,
  {df9b4a3f-5db3-44ba-b907-a8cb7ab7dbab}, !- Handle
  OnOff,                                  !- Name
  0,                                      !- Lower Limit Value {BasedOnField A4}
  1,                                      !- Upper Limit Value {BasedOnField A4}
  Discrete,                               !- Numeric Type
  Availability;                           !- Unit Type

OS:Schedule:Ruleset,
  {d249432c-2bfc-4991-8429-54afb527b8a5}, !- Handle
  0800|1700|Laboratory|default|elec_equip, !- Name
  {12489ae9-0f03-41bc-a1f4-8f84e6f12430}, !- Schedule Type Limits Name
  {94084cf1-a956-4543-b0cc-77beb13115ec}, !- Default Day Schedule Name
  {f5b214a9-50c5-4a4a-a523-a422b3e8b4a0}, !- Summer Design Day Schedule Name
  {35e9c2e8-d631-4957-8edc-626c2d90253a}; !- Winter Design Day Schedule Name

OS:ScheduleTypeLimits,
  {12489ae9-0f03-41bc-a1f4-8f84e6f12430}, !- Handle
  Equipment Schedule Type Limits,         !- Name
  0,                                      !- Lower Limit Value {BasedOnField A4}
  1,                                      !- Upper Limit Value {BasedOnField A4}
  Continuous,                             !- Numeric Type
  Dimensionless;                          !- Unit Type

OS:Schedule:Day,
  {94084cf1-a956-4543-b0cc-77beb13115ec}, !- Handle
  0800|1700|Laboratory|default|elec_equip |default, !- Name
  {12489ae9-0f03-41bc-a1f4-8f84e6f12430}, !- Schedule Type Limits Name
  ,                                       !- Interpolate to Timestep
  8,                                      !- Hour 1
  0,                                      !- Minute 1
  0.4,                                    !- Value Until Time 1
  12,                                     !- Hour 2
  0,                                      !- Minute 2
  0.9,                                    !- Value Until Time 2
  13,                                     !- Hour 3
  0,                                      !- Minute 3
  0.8,                                    !- Value Until Time 3
  16,                                     !- Hour 4
  0,                                      !- Minute 4
  0.9,                                    !- Value Until Time 4
  16,                                     !- Hour 5
  30,                                     !- Minute 5
  0.8,                                    !- Value Until Time 5
  17,                                     !- Hour 6
  0,                                      !- Minute 6
  0.7,                                    !- Value Until Time 6
  17,                                     !- Hour 7
  30,                                     !- Minute 7
  0.6,                                    !- Value Until Time 7
  18,                                     !- Hour 8
  0,                                      !- Minute 8
  0.5,                                    !- Value Until Time 8
  18,                                     !- Hour 9
  30,                                     !- Minute 9
  0.49,                                   !- Value Until Time 9
  19,                                     !- Hour 10
  0,                                      !- Minute 10
  0.48,                                   !- Value Until Time 10
  19,                                     !- Hour 11
  30,                                     !- Minute 11
  0.47,                                   !- Value Until Time 11
  20,                                     !- Hour 12
  0,                                      !- Minute 12
  0.46,                                   !- Value Until Time 12
  20,                                     !- Hour 13
  30,                                     !- Minute 13
  0.45,                                   !- Value Until Time 13
  21,                                     !- Hour 14
  0,                                      !- Minute 14
  0.44,                                   !- Value Until Time 14
  21,                                     !- Hour 15
  30,                                     !- Minute 15
  0.43,                                   !- Value Until Time 15
  22,                                     !- Hour 16
  0,                                      !- Minute 16
  0.42,                                   !- Value Until Time 16
  22,                                     !- Hour 17
  30,                                     !- Minute 17
  0.41,                                   !- Value Until Time 17
  24,                                     !- Hour 18
  0,                                      !- Minute 18
  0.4;                                    !- Value Until Time 18

OS:Schedule:Day,
  {f5b214a9-50c5-4a4a-a523-a422b3e8b4a0}, !- Handle
  0800|1700|Laboratory|default|elec_equip Summer Design Day, !- Name
  {12489ae9-0f03-41bc-a1f4-8f84e6f12430}, !- Schedule Type Limits Name
  ,                                       !- Interpolate to Timestep
  24,                                     !- Hour 1
  0,                                      !- Minute 1
  1;                                      !- Value Until Time 1

OS:Schedule:Day,
  {35e9c2e8-d631-4957-8edc-626c2d90253a}, !- Handle
  0800|1700|Laboratory|default|elec_equip Winter Design Day, !- Name
  {12489ae9-0f03-41bc-a1f4-8f84e6f12430}, !- Schedule Type Limits Name
  ,                                       !- Interpolate to Timestep
  24,                                     !- Hour 1
  0,                                      !- Minute 1
  0.4;                                    !- Value Until Time 1

OS:Schedule:Rule,
  {109371ba-82b2-47e0-85d2-5ca0f0ca8ee0}, !- Handle
  0800|1700|Laboratory|default|elec_equip |1/1-12/31|Sun Rule, !- Name
  {d249432c-2bfc-4991-8429-54afb527b8a5}, !- Schedule Ruleset Name
  0,                                      !- Rule Order
  {718f8073-d948-4aa0-a785-ca669927fdcc}, !- Day Schedule Name
  Yes,                                    !- Apply Sunday
  ,                                       !- Apply Monday
  ,                                       !- Apply Tuesday
  ,                                       !- Apply Wednesday
  ,                                       !- Apply Thursday
  ,                                       !- Apply Friday
  ,                                       !- Apply Saturday
  ,                                       !- Apply Holiday
  DateRange,                              !- Date Specification Type
  1,                                      !- Start Month
  1,                                      !- Start Day
  12,                                     !- End Month
  31;                                     !- End Day

OS:Schedule:Day,
  {718f8073-d948-4aa0-a785-ca669927fdcc}, !- Handle
  0800|1700|Laboratory|default|elec_equip |1/1-12/31|Sun, !- Name
  {12489ae9-0f03-41bc-a1f4-8f84e6f12430}, !- Schedule Type Limits Name
  ,                                       !- Interpolate to Timestep
  24,                                     !- Hour 1
  0,                                      !- Minute 1
  0.3;                                    !- Value Until Time 1

OS:Schedule:Rule,
  {0f35476e-da17-46d1-a993-d3422f2bc035}, !- Handle
  0800|1700|Laboratory|default|elec_equip |1/1-12/31|Sat Rule, !- Name
  {d249432c-2bfc-4991-8429-54afb527b8a5}, !- Schedule Ruleset Name
  1,                                      !- Rule Order
  {3825d9c0-f3ca-4ec6-8939-22904e2976cb}, !- Day Schedule Name
  ,                                       !- Apply Sunday
  ,                                       !- Apply Monday
  ,                                       !- Apply Tuesday
  ,                                       !- Apply Wednesday
  ,                                       !- Apply Thursday
  ,                                       !- Apply Friday
  Yes,                                    !- Apply Saturday
  ,                                       !- Apply Holiday
  DateRange,                              !- Date Specification Type
  1,                                      !- Start Month
  1,                                      !- Start Day
  12,                                     !- End Month
  31;                                     !- End Day

OS:Schedule:Day,
  {3825d9c0-f3ca-4ec6-8939-22904e2976cb}, !- Handle
  0800|1700|Laboratory|default|elec_equip |1/1-12/31|Sat, !- Name
  {12489ae9-0f03-41bc-a1f4-8f84e6f12430}, !- Schedule Type Limits Name
  ,                                       !- Interpolate to Timestep
  5,                                      !- Hour 1
  0,                                      !- Minute 1
  0.3,                                    !- Value Until Time 1
  5,                                      !- Hour 2
  30,                                     !- Minute 2
  0.33,                                   !- Value Until Time 2
  6,                                      !- Hour 3
  0,                                      !- Minute 3
  0.37,                                   !- Value Until Time 3
  6,                                      !- Hour 4
  30,                                     !- Minute 4
  0.4,                                    !- Value Until Time 4
  7,                                      !- Hour 5
  0,                                      !- Minute 5
  0.43,                                   !- Value Until Time 5
  7,                                      !- Hour 6
  30,                                     !- Minute 6
  0.47,                                   !- Value Until Time 6
  13,                                     !- Hour 7
  0,                                      !- Minute 7
  0.5,                                    !- Value Until Time 7
  13,                                     !- Hour 8
  30,                                     !- Minute 8
  0.48,                                   !- Value Until Time 8
  14,                                     !- Hour 9
  0,                                      !- Minute 9
  0.46,                                   !- Value Until Time 9
  14,                                     !- Hour 10
  30,                                     !- Minute 10
  0.44,                                   !- Value Until Time 10
  15,                                     !- Hour 11
  0,                                      !- Minute 11
  0.42,                                   !- Value Until Time 11
  15,                                     !- Hour 12
  30,                                     !- Minute 12
  0.4,                                    !- Value Until Time 12
  16,                                     !- Hour 13
  0,                                      !- Minute 13
  0.38,                                   !- Value Until Time 13
  16,                                     !- Hour 14
  30,                                     !- Minute 14
  0.36,                                   !- Value Until Time 14
  17,                                     !- Hour 15
  0,                                      !- Minute 15
  0.34,                                   !- Value Until Time 15
  17,                                     !- Hour 16
  30,                                     !- Minute 16
  0.32,                                   !- Value Until Time 16
  24,                                     !- Hour 17
  0,                                      !- Minute 17
  0.3;                                    !- Value Until Time 17

OS:Schedule:Ruleset,
  {cf295d7f-ecea-46f1-81e2-f7638db82c59}, !- Handle
  0800|1700|Laboratory|default|htg_setpoint, !- Name
  {53256b00-0ecf-4d08-ae73-e3a0298d1a66}, !- Schedule Type Limits Name
  {6e6a1828-4b72-45f9-9609-70871b42b070}, !- Default Day Schedule Name
  {0497245d-ea27-4fe7-a282-5e3701b29663}, !- Summer Design Day Schedule Name
  {9d48feb3-109e-4368-8396-d2b361ae922d}; !- Winter Design Day Schedule Name

OS:ScheduleTypeLimits,
  {53256b00-0ecf-4d08-ae73-e3a0298d1a66}, !- Handle
  Thermostat Heating Setpoint Schedule Type Limits, !- Name
  0,                                      !- Lower Limit Value {BasedOnField A4}
  100,                                    !- Upper Limit Value {BasedOnField A4}
  Continuous,                             !- Numeric Type
  Temperature;                            !- Unit Type

OS:Schedule:Day,
  {6e6a1828-4b72-45f9-9609-70871b42b070}, !- Handle
  0800|1700|Laboratory|default|htg_setpoint |default, !- Name
  {53256b00-0ecf-4d08-ae73-e3a0298d1a66}, !- Schedule Type Limits Name
  ,                                       !- Interpolate to Timestep
  24,                                     !- Hour 1
  0,                                      !- Minute 1
  21.0000000000001;                       !- Value Until Time 1

OS:Schedule:Day,
  {0497245d-ea27-4fe7-a282-5e3701b29663}, !- Handle
  0800|1700|Laboratory|default|htg_setpoint Summer Design Day, !- Name
  {53256b00-0ecf-4d08-ae73-e3a0298d1a66}, !- Schedule Type Limits Name
  ,                                       !- Interpolate to Timestep
  24,                                     !- Hour 1
  0,                                      !- Minute 1
  21.0000000000001;                       !- Value Until Time 1

OS:Schedule:Day,
  {9d48feb3-109e-4368-8396-d2b361ae922d}, !- Handle
  0800|1700|Laboratory|default|htg_setpoint Winter Design Day, !- Name
  {53256b00-0ecf-4d08-ae73-e3a0298d1a66}, !- Schedule Type Limits Name
  ,                                       !- Interpolate to Timestep
  24,                                     !- Hour 1
  0,                                      !- Minute 1
  21.0000000000001;                       !- Value Until Time 1

OS:Schedule:Rule,
  {71193b0f-a419-4723-ad4e-2fada403716d}, !- Handle
  0800|1700|Laboratory|default|htg_setpoint |1/1-12/31|Sun Rule, !- Name
  {cf295d7f-ecea-46f1-81e2-f7638db82c59}, !- Schedule Ruleset Name
  0,                                      !- Rule Order
  {6abf7256-3d97-4be2-b667-02fe687f2704}, !- Day Schedule Name
  Yes,                                    !- Apply Sunday
  ,                                       !- Apply Monday
  ,                                       !- Apply Tuesday
  ,                                       !- Apply Wednesday
  ,                                       !- Apply Thursday
  ,                                       !- Apply Friday
  ,                                       !- Apply Saturday
  ,                                       !- Apply Holiday
  DateRange,                              !- Date Specification Type