
OS:Version,
  {4df2f44e-7273-42d8-9123-5805543793be}, !- Handle
  1.6.0;                                  !- Version Identifier

OS:ClimateZones,
  {135edfab-17e7-40db-a436-27d385a8cd6d}, !- Handle
  ,                                       !- Active Institution
  ,                                       !- Active Year
  ASHRAE,                                 !- Climate Zone Institution Name 1
  ANSI/ASHRAE Standard 169,               !- Climate Zone Document Name 1
  2006,                                   !- Climate Zone Document Year 1
  ,                                       !- Climate Zone Value 1
  CEC,                                    !- Climate Zone Institution Name 2
  California Climate Zone Descriptions,   !- Climate Zone Document Name 2
  1995,                                   !- Climate Zone Document Year 2
  ;                                       !- Climate Zone Value 2

OS:YearDescription,
  {513d8dda-86cb-442a-b01c-1f7f0e0ac70e}; !- Handle

OS:RadianceParameters,
  {270a96f1-3c86-4b75-a667-cdf22790e2c8}, !- Handle
  1,                                      !- Accumulated Rays per Record
  0,                                      !- Direct Threshold
  1,                                      !- Direct Certainty
  1,                                      !- Direct Jitter
  1,                                      !- Direct Pretest
  6,                                      !- Ambient Bounces VMX
  2,                                      !- Ambient Bounces DMX
  4050,                                   !- Ambient Divisions VMX
  512,                                    !- Ambient Divisions DMX
  256,                                    !- Ambient Supersamples
  0.001,                                  !- Limit Weight VMX
  0.001,                                  !- Limit Weight DMX
  500,                                    !- Klems Sampling Density
  146;                                    !- Sky Discretization Resolution

OS:SimulationControl,
  {2c487a4c-bac9-4ac5-b669-1e49d9da7c2b}, !- Handle
  ,                                       !- Do Zone Sizing Calculation
  ,                                       !- Do System Sizing Calculation
  ,                                       !- Do Plant Sizing Calculation
  No,                                     !- Run Simulation for Sizing Periods
  ,                                       !- Run Simulation for Weather File Run Periods
  0.04,                                   !- Loads Convergence Tolerance Value
  ,                                       !- Temperature Convergence Tolerance Value {deltaC}
  ,                                       !- Solar Distribution
  ,                                       !- Maximum Number of Warmup Days
  2;                                      !- Minimum Number of Warmup Days

OS:Sizing:Parameters,
  {dde5af6f-7923-4600-a28a-7556673a0266}, !- Handle
  1.25,                                   !- Heating Sizing Factor
  1.15;                                   !- Cooling Sizing Factor

OS:ProgramControl,
  {05027a99-f2b3-4aeb-afc6-1425fbb4371d}; !- Handle

OS:Timestep,
  {4ebc9f1e-4707-402e-9844-67eb1ffbd522}, !- Handle
  2;                                      !- Number of Timesteps per Hour

OS:OutputControl:ReportingTolerances,
  {65797aa2-06a9-45fe-b69d-bc6e060399d3}; !- Handle

OS:ConvergenceLimits,
  {9fc11aba-8822-4f3d-970c-46391ba4040d}; !- Handle

OS:ShadowCalculation,
  {ca758bea-4416-4626-9bba-3d8795c79bd6}, !- Handle
  7,                                      !- Calculation Frequency
  15000;                                  !- Maximum Figures in Shadow Overlap Calculations

OS:SurfaceConvectionAlgorithm:Inside,
  {aaabfc36-718a-4ab0-b622-f186ebb45230}, !- Handle
  TARP;                                   !- Algorithm

OS:SurfaceConvectionAlgorithm:Outside,
  {9a0a9f6f-4bbd-4b12-a121-9492a1fcd7d6}, !- Handle
  DOE-2;                                  !- Algorithm

OS:HeatBalanceAlgorithm,
  {9d93e563-e1e0-46d7-9e39-d1c8aceb7212}, !- Handle
  ConductionTransferFunction,             !- Algorithm
  200;                                    !- Surface Temperature Upper Limit {F}

OS:ZoneAirHeatBalanceAlgorithm,
  {8520d93e-310f-4696-9bcd-36228bfdd743}, !- Handle
  AnalyticalSolution;                     !- Algorithm

OS:ZoneAirContaminantBalance,
  {eb5fc3ae-fb22-4160-8fcb-3e3b22b000d3}; !- Handle

OS:ZoneCapacitanceMultiplier:ResearchSpecial,
  {4020ce4f-5a7a-4849-8028-8305d7b751b1}, !- Handle
  ,                                       !- Temperature Capacity Multiplier
  ,                                       !- Humidity Capacity Multiplier
  ;                                       !- Carbon Dioxide Capacity Multiplier

OS:RunPeriod,
  {28df894d-6af9-4fb8-8f56-df1753344aa3}, !- Handle
  Run Period 1,                           !- Name
  1,                                      !- Begin Month
  1,                                      !- Begin Day of Month
  12,                                     !- End Month
  31,                                     !- End Day of Month
  ,                                       !- Use Weather File Holidays and Special Days
  ,                                       !- Use Weather File Daylight Saving Period
  ,                                       !- Apply Weekend Holiday Rule
  ,                                       !- Use Weather File Rain Indicators
  ,                                       !- Use Weather File Snow Indicators
  ;                                       !- Number of Times Runperiod to be Repeated

OS:Building,
  {bf305633-c5a1-4881-9edf-ca5e1a8e1274}, !- Handle
  Building 1,                             !- Name
  ,                                       !- Building Sector Type
  ,                                       !- North Axis {deg}
  ,                                       !- Nominal Floor to Floor Height {m}
  ,                                       !- Space Type Name
  ,                                       !- Default Construction Set Name
  {1be0e72c-21a8-4b22-8cdf-07f310ac1267}, !- Default Schedule Set Name
  ,                                       !- Standards Number of Stories
  ,                                       !- Standards Number of Above Ground Stories
  LargeHotel;                             !- Standards Building Type

OS:LifeCycleCost:Parameters,
  {231cf8a0-f0e7-4251-a99f-11f0d464e661}, !- Handle
  FEMP,                                   !- Analysis Type
  ,                                       !- Discounting Convention
  ,                                       !- Inflation Approach
  ,                                       !- Real Discount Rate
  ,                                       !- Nominal Discount Rate
  ,                                       !- Inflation
  ,                                       !- Base Date Month
  ,                                       !- Base Date Year
  ,                                       !- Service Date Month
  ,                                       !- Service Date Year
  ,                                       !- Length of Study Period in Years
  ,                                       !- Tax Rate
  ,                                       !- Depreciation Method
  Yes;                                    !- Use NIST Fuel Escalation Rates

OS:Facility,
  {3ba8e45b-b833-44eb-a723-ea6c3946dc96}; !- Handle

OS:SpaceType,
  {48a7b5d3-3840-42cc-8a31-f708bed265da}, !- Handle
  LargeHotel|BlendGst|DOE Ref 2004|ASHRAE 169-2006-5A, !- Name
  {312e9148-95cc-4c38-b9bd-1d903ee39d1e}, !- Default Construction Set Name
  ,                                       !- Default Schedule Set Name
  {8ce04be7-bccb-4ae6-9e25-0b5e80e0a66f}, !- Group Rendering Name
  {8d050630-321a-41b1-8f16-1dc4f48507b0}, !- Design Specification Outdoor Air Object Name
  LargeHotel,                             !- Standards Building Type
  BlendGst;                               !- Standards Space Type

OS:Rendering:Color,
  {8ce04be7-bccb-4ae6-9e25-0b5e80e0a66f}, !- Handle
  Rendering Color 1,                      !- Name
  78,                                     !- Rendering Red Value
  167,                                    !- Rendering Green Value
  222;                                    !- Rendering Blue Value

OS:SpaceType,
  {f0a11ada-0965-45dd-956f-c84e98db45f8}, !- Handle
  LargeHotel|BlendLob|DOE Ref 2004|ASHRAE 169-2006-5A, !- Name
  {312e9148-95cc-4c38-b9bd-1d903ee39d1e}, !- Default Construction Set Name
  ,                                       !- Default Schedule Set Name
  {1d7debca-5b26-4d06-9042-bf1c4fee92d0}, !- Group Rendering Name
  {36be9216-7b69-4808-bbaa-21cd85e8a21a}, !- Design Specification Outdoor Air Object Name
  LargeHotel,                             !- Standards Building Type
  BlendLob;                               !- Standards Space Type

OS:Rendering:Color,
  {1d7debca-5b26-4d06-9042-bf1c4fee92d0}, !- Handle
  Rendering Color 2,                      !- Name
  230,                                    !- Rendering Red Value
  157,                                    !- Rendering Green Value
  120;                                    !- Rendering Blue Value

OS:SpaceType,
  {2f3b04a7-be4b-42fb-a335-b67da9fb641e}, !- Handle
  LargeHotel|BlendFds|DOE Ref 2004|ASHRAE 169-2006-5A, !- Name
  {312e9148-95cc-4c38-b9bd-1d903ee39d1e}, !- Default Construction Set Name
  ,                                       !- Default Schedule Set Name
  {cecc4f91-86f2-470c-ae48-c78151c0f1eb}, !- Group Rendering Name
  {247d7a8b-c82d-4a3c-bfa7-d3d41336d0e2}, !- Design Specification Outdoor Air Object Name
  LargeHotel,                             !- Standards Building Type
  BlendFds;                               !- Standards Space Type

OS:Rendering:Color,
  {cecc4f91-86f2-470c-ae48-c78151c0f1eb}, !- Handle
  Rendering Color 3,                      !- Name
  230,                                    !- Rendering Red Value
  196,                                    !- Rendering Green Value
  120;                                    !- Rendering Blue Value

OS:SpaceType,
  {a0a3a5cf-33d1-4e0a-8962-b0f93f540fa3}, !- Handle
  LargeHotel|BlendMisc|DOE Ref 2004|ASHRAE 169-2006-5A, !- Name
  {312e9148-95cc-4c38-b9bd-1d903ee39d1e}, !- Default Construction Set Name
  ,                                       !- Default Schedule Set Name
  {6d3f576c-c677-4031-9a9a-f53a4655ba44}, !- Group Rendering Name
  {336dcab0-15c3-49c4-8718-41196b176268}, !- Design Specification Outdoor Air Object Name
  LargeHotel,                             !- Standards Building Type
  BlendMisc;                              !- Standards Space Type

OS:Rendering:Color,
  {6d3f576c-c677-4031-9a9a-f53a4655ba44}, !- Handle
  Rendering Color 4,                      !- Name
  41,                                     !- Rendering Red Value
  31,                                     !- Rendering Green Value
  169;                                    !- Rendering Blue Value

OS:SpaceType,
  {038c8950-73a6-4456-952e-c05db32370e1}, !- Handle
  LargeHotel|Kitchen|DOE Ref 2004|ASHRAE 169-2006-5A, !- Name
  {312e9148-95cc-4c38-b9bd-1d903ee39d1e}, !- Default Construction Set Name
  {291c5f94-1578-47b2-80ad-8fe324df5d98}, !- Default Schedule Set Name
  {8e5ba6ce-c482-4a4c-89f8-67474bbdcdd0}, !- Group Rendering Name
  {3bf15cc1-5a0f-4da7-ad81-db497914c1af}, !- Design Specification Outdoor Air Object Name
  LargeHotel,                             !- Standards Building Type
  Kitchen;                                !- Standards Space Type

OS:Rendering:Color,
  {8e5ba6ce-c482-4a4c-89f8-67474bbdcdd0}, !- Handle
  Rendering Color 5,                      !- Name
  78,                                     !- Rendering Red Value
  222,                                    !- Rendering Green Value
  133;                                    !- Rendering Blue Value

OS:SpaceType,
  {45cc0663-6827-4f76-90fa-cdefd725fcd6}, !- Handle
  LargeHotel|Laundry|DOE Ref 2004|ASHRAE 169-2006-5A, !- Name
  {312e9148-95cc-4c38-b9bd-1d903ee39d1e}, !- Default Construction Set Name
  {5276bbc6-2a5b-457f-aa13-de1035c828bf}, !- Default Schedule Set Name
  {809ac737-65fe-4cfb-9b9e-149b7631ef89}, !- Group Rendering Name
  {2fc3b5f6-7173-4b7f-87d4-c42afd7ec546}, !- Design Specification Outdoor Air Object Name
  LargeHotel,                             !- Standards Building Type
  Laundry;                                !- Standards Space Type

OS:Rendering:Color,
  {809ac737-65fe-4cfb-9b9e-149b7631ef89}, !- Handle
  Rendering Color 6,                      !- Name
  120,                                    !- Rendering Red Value
  149,                                    !- Rendering Green Value
  230;                                    !- Rendering Blue Value

OS:Schedule:Ruleset,
  {d2553f60-d451-471c-9868-9a0d443296ce}, !- Handle
  0600|2200|LargeHotel|default|hoo,       !- Name
  {d9935b1f-98f2-431b-808c-4d6bd2f5ea74}, !- Schedule Type Limits Name
  {87eae74d-04ac-4e6f-847d-6cb2b9cec2e5}, !- Default Day Schedule Name
  {1bc1082d-1b91-4352-8a00-1ba76df58b4e}, !- Summer Design Day Schedule Name
  {6cdc2f14-01e4-43c6-83b0-157b5b930ec6}; !- Winter Design Day Schedule Name

OS:Schedule:Day,
  {87eae74d-04ac-4e6f-847d-6cb2b9cec2e5}, !- Handle
  0600|2200|LargeHotel|default|hoo Schedule Week Day, !- Name
  {d9935b1f-98f2-431b-808c-4d6bd2f5ea74}, !- Schedule Type Limits Name
  ,                                       !- Interpolate to Timestep
  6,                                      !- Hour 1
  0,                                      !- Minute 1
  0,                                      !- Value Until Time 1
  22,                                     !- Hour 2
  0,                                      !- Minute 2
  1,                                      !- Value Until Time 2
  24,                                     !- Hour 3
  0,                                      !- Minute 3
  0;                                      !- Value Until Time 3

OS:Schedule:Day,
  {dbbc2e93-d654-409b-9689-5156b67c75fa}, !- Handle
  Schedule Day 2,                         !- Name
  ,                                       !- Schedule Type Limits Name
  ,                                       !- Interpolate to Timestep
  24,                                     !- Hour 1
  0,                                      !- Minute 1
  0;                                      !- Value Until Time 1

OS:Schedule:Day,
  {6cdc2f14-01e4-43c6-83b0-157b5b930ec6}, !- Handle
  0600|2200|LargeHotel|default|hoo Winter Design Day, !- Name
  {d9935b1f-98f2-431b-808c-4d6bd2f5ea74}, !- Schedule Type Limits Name
  ,                                       !- Interpolate to Timestep
  24,                                     !- Hour 1
  0,                                      !- Minute 1
  0;                                      !- Value Until Time 1

OS:Schedule:Day,
  {b3b54335-524a-4e9d-a8f6-04c83825e01b}, !- Handle
  Schedule Day 3,                         !- Name
  ,                                       !- Schedule Type Limits Name
  ,                                       !- Interpolate to Timestep
  24,                                     !- Hour 1
  0,                                      !- Minute 1
  0;                                      !- Value Until Time 1

OS:Schedule:Day,
  {1bc1082d-1b91-4352-8a00-1ba76df58b4e}, !- Handle
  0600|2200|LargeHotel|default|hoo Summer Design Day, !- Name
  {d9935b1f-98f2-431b-808c-4d6bd2f5ea74}, !- Schedule Type Limits Name
  ,                                       !- Interpolate to Timestep
  24,                                     !- Hour 1
  0,                                      !- Minute 1
  1;                                      !- Value Until Time 1

OS:DefaultScheduleSet,
  {1be0e72c-21a8-4b22-8cdf-07f310ac1267}, !- Handle
  Building Hours of Operation,            !- Name
  {d2553f60-d451-471c-9868-9a0d443296ce}, !- Hours of Operation Schedule Name
  ,                                       !- Number of People Schedule Name
  ,                                       !- People Activity Level Schedule Name
  ,                                       !- Lighting Schedule Name
  ,                                       !- Electric Equipment Schedule Name
  ,                                       !- Gas Equipment Schedule Name
  ,                                       !- Hot Water Equipment Schedule Name
  ,                                       !- Infiltration Schedule Name
  ,                                       !- Steam Equipment Schedule Name
  ;                                       !- Other Equipment Schedule Name

OS:ScheduleTypeLimits,
  {d9935b1f-98f2-431b-808c-4d6bd2f5ea74}, !- Handle
  OnOff,                                  !- Name
  0,                                      !- Lower Limit Value {BasedOnField A4}
  1,                                      !- Upper Limit Value {BasedOnField A4}
  Discrete,                               !- Numeric Type
  Availability;                           !- Unit Type

OS:Schedule:Ruleset,
  {27219654-9f61-4c1e-afa4-c9301697a132}, !- Handle
  0600|2200|LargeHotel|default|clothing,  !- Name
  {9c511205-8daf-4c1c-afc2-ad5e9a85e262}, !- Schedule Type Limits Name
  {f9780355-2e9e-4b26-a71a-c5a4449d2d50}, !- Default Day Schedule Name
  {86a977b7-e51c-4106-a703-48fdd359330e}, !- Summer Design Day Schedule Name
  {4356090e-34a2-4f33-98ac-1fe9c2849461}; !- Winter Design Day Schedule Name

OS:ScheduleTypeLimits,
  {9c511205-8daf-4c1c-afc2-ad5e9a85e262}, !- Handle
  Dimensionless Schedule Type Limits,     !- Name
  ,                                       !- Lower Limit Value {BasedOnField A4}
  ,                                       !- Upper Limit Value {BasedOnField A4}
  Continuous,                             !- Numeric Type
  Dimensionless;                          !- Unit Type

OS:Schedule:Day,
  {f9780355-2e9e-4b26-a71a-c5a4449d2d50}, !- Handle
  0600|2200|LargeHotel|default|clothing |default, !- Name
  {9c511205-8daf-4c1c-afc2-ad5e9a85e262}, !- Schedule Type Limits Name
  ,                                       !- Interpolate to Timestep
  24,                                     !- Hour 1
  0,                                      !- Minute 1
  1;                                      !- Value Until Time 1

OS:Schedule:Day,
  {86a977b7-e51c-4106-a703-48fdd359330e}, !- Handle
  0600|2200|LargeHotel|default|clothing Summer Design Day, !- Name
  {9c511205-8daf-4c1c-afc2-ad5e9a85e262}, !- Schedule Type Limits Name
  ,                                       !- Interpolate to Timestep
  24,                                     !- Hour 1
  0,                                      !- Minute 1
  1;                                      !- Value Until Time 1

OS:Schedule:Day,
  {4356090e-34a2-4f33-98ac-1fe9c2849461}, !- Handle
  0600|2200|LargeHotel|default|clothing Winter Design Day, !- Name
  {9c511205-8daf-4c1c-afc2-ad5e9a85e262}, !- Schedule Type Limits Name
  ,                                       !- Interpolate to Timestep
  24,                                     !- Hour 1
  0,                                      !- Minute 1
  1;                                      !- Value Until Time 1

OS:Schedule:Rule,
  {137f7ab1-0c5c-4f8d-9352-2fb1a3b8d9e5}, !- Handle
  0600|2200|LargeHotel|default|clothing |5/1-9/30|Mon/Tue/Wed/Thu/Fri/Sat/Sun Rule, !- Name
  {27219654-9f61-4c1e-afa4-c9301697a132}, !- Schedule Ruleset Name
  0,                                      !- Rule Order
  {302c056d-8db8-4e37-97d5-2e902391dd4b}, !- Day Schedule Name
  Yes,                                    !- Apply Sunday
  Yes,                                    !- Apply Monday
  Yes,                                    !- Apply Tuesday
  Yes,                                    !- Apply Wednesday
  Yes,                                    !- Apply Thursday
  Yes,                                    !- Apply Friday
  Yes,                                    !- Apply Saturday
  ,                                       !- Apply Holiday
  DateRange,                              !- Date Specification Type
  5,                                      !- Start Month
  1,                                      !- Start Day
  9,                                      !- End Month
  30;                                     !- End Day

OS:Schedule:Day,
  {302c056d-8db8-4e37-97d5-2e902391dd4b}, !- Handle
  0600|2200|LargeHotel|default|clothing |5/1-9/30|Mon/Tue/Wed/Thu/Fri/Sat/Sun, !- Name
  {9c511205-8daf-4c1c-afc2-ad5e9a85e262}, !- Schedule Type Limits Name
  ,                                       !- Interpolate to Timestep
  24,                                     !- Hour 1
  0,                                      !- Minute 1
  0.5;                                    !- Value Until Time 1

OS:Schedule:Rule,
  {a7532c1f-c82b-41d2-9d6c-9b12333648bf}, !- Handle
  0600|2200|LargeHotel|default|clothing |10/1-12/31|Mon/Tue/Wed/Thu/Fri/Sat/Sun Rule, !- Name
  {27219654-9f61-4c1e-afa4-c9301697a132}, !- Schedule Ruleset Name
  1,                                      !- Rule Order
  {aeb2c531-d652-49b3-b52e-9137f3cf8034}, !- Day Schedule Name
  Yes,                                    !- Apply Sunday
  Yes,                                    !- Apply Monday
  Yes,                                    !- Apply Tuesday
  Yes,                                    !- Apply Wednesday
  Yes,                                    !- Apply Thursday
  Yes,                                    !- Apply Friday
  Yes,                                    !- Apply Saturday
  ,                                       !- Apply Holiday
  DateRange,                              !- Date Specification Type
  10,                                     !- Start Month
  1,                                      !- Start Day
  12,                                     !- End Month
  31;                                     !- End Day

OS:Schedule:Day,
  {aeb2c531-d652-49b3-b52e-9137f3cf8034}, !- Handle
  0600|2200|LargeHotel|default|clothing |10/1-12/31|Mon/Tue/Wed/Thu/Fri/Sat/Sun, !- Name
  {9c511205-8daf-4c1c-afc2-ad5e9a85e262}, !- Schedule Type Limits Name
  ,                                       !- Interpolate to Timestep
  24,                                     !- Hour 1
  0,                                      !- Minute 1
  1;                                      !- Value Until Time 1

OS:Schedule:Ruleset,
  {a706c017-f135-4fb9-a564-9bc45cc4eb0a}, !- Handle
  0600|2200|LargeHotel|default|ext_lighting, !- Name
  {cb8e594b-385b-4914-bf40-b35dd7cdf6f8}, !- Schedule Type Limits Name
  {1dc6a1fa-83c0-4d63-8419-ad9def6ccde4}, !- Default Day Schedule Name
  {b120b901-1b52-4534-9a4a-43de0f46018c}, !- Summer Design Day Schedule Name
  {298c52e6-9ffd-4abc-823a-18d9c9a78d9f}; !- Winter Design Day Schedule Name

OS:ScheduleTypeLimits,
  {cb8e594b-385b-4914-bf40-b35dd7cdf6f8}, !- Handle
  Lights Schedule Type Limits,            !- Name
  0,                                      !- Lower Limit Value {BasedOnField A4}
  1,                                      !- Upper Limit Value {BasedOnField A4}
  Continuous,                             !- Numeric Type
  Dimensionless;                          !- Unit Type

OS:Schedule:Day,
  {1dc6a1fa-83c0-4d63-8419-ad9def6ccde4}, !- Handle
  0600|2200|LargeHotel|default|ext_lighting |default, !- Name
  {cb8e594b-385b-4914-bf40-b35dd7cdf6f8}, !- Schedule Type Limits Name
  ,                                       !- Interpolate to Timestep
  24,                                     !- Hour 1
  0,                                      !- Minute 1
  1;                                      !- Value Until Time 1

OS:Schedule:Day,
  {b120b901-1b52-4534-9a4a-43de0f46018c}, !- Handle
  0600|2200|LargeHotel|default|ext_lighting Summer Design Day, !- Name
  {cb8e594b-385b-4914-bf40-b35dd7cdf6f8}, !- Schedule Type Limits Name
  ,                                       !- Interpolate to Timestep
  24,                                     !- Hour 1
  0,                                      !- Minute 1
  1;                                      !- Value Until Time 1

OS:Schedule:Day,
  {298c52e6-9ffd-4abc-823a-18d9c9a78d9f}, !- Handle
  0600|2200|LargeHotel|default|ext_lighting Winter Design Day, !- Name
  {cb8e594b-385b-4914-bf40-b35dd7cdf6f8}, !- Schedule Type Limits Name
  ,                                       !- Interpolate to Timestep
  24,                                     !- Hour 1
  0,                                      !- Minute 1
  1;                                      !- Value Until Time 1

OS:Schedule:Ruleset,
  {56d8fdd1-5b44-4686-9a7e-9406c2b851b1}, !- Handle
  0600|2200|LargeHotel|GuestRoom|occ,     !- Name
  {c15a222e-c22b-41a6-b978-4588eb471e88}, !- Schedule Type Limits Name
  {b3711fa0-c64e-482b-9e79-8490d1a63d9f}, !- Default Day Schedule Name
  {9bee4ddc-2fba-4eb8-9d13-3e49a7a9b7ba}, !- Summer Design Day Schedule Name
  {15b99862-0799-4a59-bd81-9d653ad735e9}; !- Winter Design Day Schedule Name

OS:ScheduleTypeLimits,
  {c15a222e-c22b-41a6-b978-4588eb471e88}, !- Handle
  Occupancy Schedule Type Limits,         !- Name
  0,                                      !- Lower Limit Value {BasedOnField A4}
  1,                                      !- Upper Limit Value {BasedOnField A4}
  Continuous,                             !- Numeric Type
  Dimensionless;                          !- Unit Type

OS:Schedule:Day,
  {b3711fa0-c64e-482b-9e79-8490d1a63d9f}, !- Handle
  0600|2200|LargeHotel|GuestRoom|occ |default, !- Name
  {c15a222e-c22b-41a6-b978-4588eb471e88}, !- Schedule Type Limits Name
  ,                                       !- Interpolate to Timestep
  6,                                      !- Hour 1
  0,                                      !- Minute 1
  0.65,                                   !- Value Until Time 1
  7,                                      !- Hour 2
  0,                                      !- Minute 2
  0.5,                                    !- Value Until Time 2
  9,                                      !- Hour 3
  0,                                      !- Minute 3
  0.28,                                   !- Value Until Time 3
  15,                                     !- Hour 4
  0,                                      !- Minute 4
  0.13,                                   !- Value Until Time 4
  16,                                     !- Hour 5
  0,                                      !- Minute 5
  0.2,                                    !- Value Until Time 5
  19,                                     !- Hour 6
  0,                                      !- Minute 6
  0.35,                                   !- Value Until Time 6
  21,                                     !- Hour 7
  0,                                      !- Minute 7
  0.5,                                    !- Value Until Time 7
  22,                                     !- Hour 8
  0,                                      !- Minute 8
  0.58,                                   !- Value Until Time 8
  24,                                     !- Hour 9
  0,                                      !- Minute 9
  0.65;                                   !- Value Until Time 9

OS:Schedule:Day,
  {9bee4ddc-2fba-4eb8-9d13-3e49a7a9b7ba}, !- Handle
  0600|2200|LargeHotel|GuestRoom|occ Summer Design Day, !- Name
  {c15a222e-c22b-41a6-b978-4588eb471e88}, !- Schedule Type Limits Name
  ,                                       !- Interpolate to Timestep
  7,                                      !- Hour 1
  0,                                      !- Minute 1
  1,                                      !- Value Until Time 1
  9,                                      !- Hour 2
  0,                                      !- Minute 2
  0.28,                                   !- Value Until Time 2
  15,                                     !- Hour 3
  0,                                      !- Minute 3
  0.13,                                   !- Value Until Time 3
  16,                                     !- Hour 4
  0,                                      !- Minute 4
  0.2,                                    !- Value Until Time 4
  24,                                     !- Hour 5
  0,                                      !- Minute 5
  1;                                      !- Value Until Time 5

OS:Schedule:Day,
  {15b99862-0799-4a59-bd81-9d653ad735e9}, !- Handle
  0600|2200|LargeHotel|GuestRoom|occ Winter Design Day, !- Name
  {c15a222e-c22b-41a6-b978-4588eb471e88}, !- Schedule Type Limits Name
  ,                                       !- Interpolate to Timestep
  24,                                     !- Hour 1
  0,                                      !- Minute 1
  0;                                      !- Value Until Time 1

OS:Schedule:Rule,
  {d419d3a2-2af1-46d1-862f-8760ef86df40}, !- Handle
  0600|2200|LargeHotel|GuestRoom|occ |1/1-12/31|Sat/Sun Rule, !- Name
  {56d8fdd1-5b44-4686-9a7e-9406c2b851b1}, !- Schedule Ruleset Name
  0,                                      !- Rule Order
  {9aaa23d5-de27-4c11-b70c-23286a97034d}, !- Day Schedule Name
  Yes,                                    !- Apply Sunday
  ,                                       !- Apply Monday
  ,                                       !- Apply Tuesday
  ,                                       !- Apply Wednesday
  ,                                       !- Apply Thursday
  ,                                       !- Apply Friday
  Yes,                                    !- Apply Saturday
  ,                                       !- Apply Holiday
  DateRange,                              !- Date Specification Type
  1,                                      !- Start Month
  1,                                      !- Start Day
  12,                                     !- End Month
  31;                                     !- End Day

OS:Schedule:Day,
  {9aaa23d5-de27-4c11-b70c-23286a97034d}, !- Handle
  0600|2200|LargeHotel|GuestRoom|occ |1/1-12/31|Sat/Sun, !- Name
  {c15a222e-c22b-41a6-b978-4588eb471e88}, !- Schedule Type Limits Name
  ,                                       !- Interpolate to Timestep
  6,                                      !- Hour 1