
OS:Version,
  {22cf214a-51a7-4b73-ae86-d94e83a4840c}, !- Handle
  1.5.5;                                  !- Version Identifier

OS:ClimateZones,
  {135edfab-17e7-40db-a436-27d385a8cd6d}, !- Handle
  ,                                       !- Active Institution
  ,                                       !- Active Year
  ASHRAE,                                 !- Climate Zone Institution Name 1
  ANSI/ASHRAE Standard 169,               !- Climate Zone Document Name 1
  2006,                                   !- Climate Zone Document Year 1
  ,                                       !- Climate Zone Value 1
  CEC,                                    !- Climate Zone Institution Name 2
  California Climate Zone Descriptions,   !- Climate Zone Document Name 2
  1995,                                   !- Climate Zone Document Year 2
  ;                                       !- Climate Zone Value 2

OS:YearDescription,
  {513d8dda-86cb-442a-b01c-1f7f0e0ac70e}; !- Handle

OS:RadianceParameters,
  {270a96f1-3c86-4b75-a667-cdf22790e2c8}, !- Handle
  1,                                      !- Accumulated Rays per Record
  0,                                      !- Direct Threshold
  1,                                      !- Direct Certainty
  1,                                      !- Direct Jitter
  1,                                      !- Direct Pretest
  6,                                      !- Ambient Bounces VMX
  2,                                      !- Ambient Bounces DMX
  4050,                                   !- Ambient Divisions VMX
  512,                                    !- Ambient Divisions DMX
  256,                                    !- Ambient Supersamples
  0.001,                                  !- Limit Weight VMX
  0.001,                                  !- Limit Weight DMX
  500,                                    !- Klems Sampling Density
  146;                                    !- Sky Discretization Resolution

OS:SimulationControl,
  {2c487a4c-bac9-4ac5-b669-1e49d9da7c2b}, !- Handle
  ,                                       !- Do Zone Sizing Calculation
  ,                                       !- Do System Sizing Calculation
  ,                                       !- Do Plant Sizing Calculation
  No,                                     !- Run Simulation for Sizing Periods
  ,                                       !- Run Simulation for Weather File Run Periods
  0.04,                                   !- Loads Convergence Tolerance Value
  ,                                       !- Temperature Convergence Tolerance Value {deltaC}
  ,                                       !- Solar Distribution
  ,                                       !- Maximum Number of Warmup Days
  2;                                      !- Minimum Number of Warmup Days

OS:Sizing:Parameters,
  {dde5af6f-7923-4600-a28a-7556673a0266}, !- Handle
  1.25,                                   !- Heating Sizing Factor
  1.15;                                   !- Cooling Sizing Factor

OS:ProgramControl,
  {05027a99-f2b3-4aeb-afc6-1425fbb4371d}; !- Handle

OS:Timestep,
  {4ebc9f1e-4707-402e-9844-67eb1ffbd522}, !- Handle
  2;                                      !- Number of Timesteps per Hour

OS:OutputControl:ReportingTolerances,
  {65797aa2-06a9-45fe-b69d-bc6e060399d3}; !- Handle

OS:ConvergenceLimits,
  {9fc11aba-8822-4f3d-970c-46391ba4040d}; !- Handle

OS:ShadowCalculation,
  {ca758bea-4416-4626-9bba-3d8795c79bd6}, !- Handle
  7,                                      !- Calculation Frequency
  15000;                                  !- Maximum Figures in Shadow Overlap Calculations

OS:SurfaceConvectionAlgorithm:Inside,
  {aaabfc36-718a-4ab0-b622-f186ebb45230}, !- Handle
  TARP;                                   !- Algorithm

OS:SurfaceConvectionAlgorithm:Outside,
  {9a0a9f6f-4bbd-4b12-a121-9492a1fcd7d6}, !- Handle
  DOE-2;                                  !- Algorithm

OS:HeatBalanceAlgorithm,
  {9d93e563-e1e0-46d7-9e39-d1c8aceb7212}, !- Handle
  ConductionTransferFunction,             !- Algorithm
  200;                                    !- Surface Temperature Upper Limit {F}

OS:ZoneAirHeatBalanceAlgorithm,
  {8520d93e-310f-4696-9bcd-36228bfdd743}, !- Handle
  AnalyticalSolution;                     !- Algorithm

OS:ZoneAirContaminantBalance,
  {eb5fc3ae-fb22-4160-8fcb-3e3b22b000d3}; !- Handle

OS:ZoneCapacitanceMultiplier:ResearchSpecial,
  {4020ce4f-5a7a-4849-8028-8305d7b751b1}, !- Handle
  ,                                       !- Temperature Capacity Multiplier
  ,                                       !- Humidity Capacity Multiplier
  ;                                       !- Carbon Dioxide Capacity Multiplier

OS:RunPeriod,
  {28df894d-6af9-4fb8-8f56-df1753344aa3}, !- Handle
  Run Period 1,                           !- Name
  1,                                      !- Begin Month
  1,                                      !- Begin Day of Month
  12,                                     !- End Month
  31,                                     !- End Day of Month
  ,                                       !- Use Weather File Holidays and Special Days
  ,                                       !- Use Weather File Daylight Saving Period
  ,                                       !- Apply Weekend Holiday Rule
  ,                                       !- Use Weather File Rain Indicators
  ,                                       !- Use Weather File Snow Indicators
  ;                                       !- Number of Times Runperiod to be Repeated

OS:Building,
  {bf305633-c5a1-4881-9edf-ca5e1a8e1274}, !- Handle
  Building 1,                             !- Name
  ,                                       !- Building Sector Type
  ,                                       !- North Axis {deg}
  ,                                       !- Nominal Floor to Floor Height {m}
  ,                                       !- Space Type Name
  ,                                       !- Default Construction Set Name
  {80166a45-e2ef-4926-b278-dcddc13cfcff}, !- Default Schedule Set Name
  ,                                       !- Standards Number of Stories
  ,                                       !- Standards Number of Above Ground Stories
  LargeHotel;                             !- Standards Building Type

OS:LifeCycleCost:Parameters,
  {231cf8a0-f0e7-4251-a99f-11f0d464e661}, !- Handle
  FEMP,                                   !- Analysis Type
  ,                                       !- Discounting Convention
  ,                                       !- Inflation Approach
  ,                                       !- Real Discount Rate
  ,                                       !- Nominal Discount Rate
  ,                                       !- Inflation
  ,                                       !- Base Date Month
  ,                                       !- Base Date Year
  ,                                       !- Service Date Month
  ,                                       !- Service Date Year
  ,                                       !- Length of Study Period in Years
  ,                                       !- Tax Rate
  ,                                       !- Depreciation Method
  Yes;                                    !- Use NIST Fuel Escalation Rates

OS:Facility,
  {3ba8e45b-b833-44eb-a723-ea6c3946dc96}; !- Handle

OS:SpaceType,
  {47c41456-8f2d-47ed-8c02-bf70261dd702}, !- Handle
  LargeHotel|BlendGst|DOE Ref Pre-1980|ASHRAE 169-2006-5A, !- Name
  {b633627e-d99e-498c-a253-5b6b37562ccc}, !- Default Construction Set Name
  ,                                       !- Default Schedule Set Name
  {752b511d-5d93-4280-895a-7954f299a1bf}, !- Group Rendering Name
  {83d9f378-f97d-4211-aaf8-93ed63957c8d}, !- Design Specification Outdoor Air Object Name
  LargeHotel,                             !- Standards Building Type
  BlendGst;                               !- Standards Space Type

OS:Rendering:Color,
  {752b511d-5d93-4280-895a-7954f299a1bf}, !- Handle
  Rendering Color 1,                      !- Name
  78,                                     !- Rendering Red Value
  167,                                    !- Rendering Green Value
  222;                                    !- Rendering Blue Value

OS:SpaceType,
  {12c58d65-c8f8-4fa3-9e12-778be5efda76}, !- Handle
  LargeHotel|BlendLob|DOE Ref Pre-1980|ASHRAE 169-2006-5A, !- Name
  {b633627e-d99e-498c-a253-5b6b37562ccc}, !- Default Construction Set Name
  ,                                       !- Default Schedule Set Name
  {9311f0c8-3a69-475a-8a17-c8dcd2772c34}, !- Group Rendering Name
  {e19e1c30-0c7d-49c1-ac4c-1c5e476a19f7}, !- Design Specification Outdoor Air Object Name
  LargeHotel,                             !- Standards Building Type
  BlendLob;                               !- Standards Space Type

OS:Rendering:Color,
  {9311f0c8-3a69-475a-8a17-c8dcd2772c34}, !- Handle
  Rendering Color 2,                      !- Name
  230,                                    !- Rendering Red Value
  157,                                    !- Rendering Green Value
  120;                                    !- Rendering Blue Value

OS:SpaceType,
  {89d970ee-529b-4c52-a0f6-82fcf025be33}, !- Handle
  LargeHotel|BlendFds|DOE Ref Pre-1980|ASHRAE 169-2006-5A, !- Name
  {b633627e-d99e-498c-a253-5b6b37562ccc}, !- Default Construction Set Name
  ,                                       !- Default Schedule Set Name
  {3f8a1801-a5e5-405a-9b06-cac05c4bfa8c}, !- Group Rendering Name
  {e94a96c0-1f1a-4006-bf35-337e59c52ca1}, !- Design Specification Outdoor Air Object Name
  LargeHotel,                             !- Standards Building Type
  BlendFds;                               !- Standards Space Type

OS:Rendering:Color,
  {3f8a1801-a5e5-405a-9b06-cac05c4bfa8c}, !- Handle
  Rendering Color 3,                      !- Name
  230,                                    !- Rendering Red Value
  196,                                    !- Rendering Green Value
  120;                                    !- Rendering Blue Value

OS:SpaceType,
  {2e9bf9ac-dd6e-4adb-a4de-73e1c82f8ea4}, !- Handle
  LargeHotel|BlendMisc|DOE Ref Pre-1980|ASHRAE 169-2006-5A, !- Name
  {b633627e-d99e-498c-a253-5b6b37562ccc}, !- Default Construction Set Name
  ,                                       !- Default Schedule Set Name
  {fb012562-ed6d-4b40-b5bc-d24b6c031a86}, !- Group Rendering Name
  {a0a5f5bb-1d8e-4d7b-bfd3-46d037b8d6fa}, !- Design Specification Outdoor Air Object Name
  LargeHotel,                             !- Standards Building Type
  BlendMisc;                              !- Standards Space Type

OS:Rendering:Color,
  {fb012562-ed6d-4b40-b5bc-d24b6c031a86}, !- Handle
  Rendering Color 4,                      !- Name
  41,                                     !- Rendering Red Value
  31,                                     !- Rendering Green Value
  169;                                    !- Rendering Blue Value

OS:SpaceType,
  {f72163ec-3e1d-4baa-8ae3-5221ba848f28}, !- Handle
  LargeHotel|Kitchen|DOE Ref Pre-1980|ASHRAE 169-2006-5A, !- Name
  {b633627e-d99e-498c-a253-5b6b37562ccc}, !- Default Construction Set Name
  {7b694925-490a-401f-ac56-a0478690f25f}, !- Default Schedule Set Name
  {f15ef95d-2f62-4b56-89ac-170aab9d4751}, !- Group Rendering Name
  {b3946fcf-7b16-4c0e-8b39-e04a12d38fac}, !- Design Specification Outdoor Air Object Name
  LargeHotel,                             !- Standards Building Type
  Kitchen;                                !- Standards Space Type

OS:Rendering:Color,
  {f15ef95d-2f62-4b56-89ac-170aab9d4751}, !- Handle
  Rendering Color 5,                      !- Name
  78,                                     !- Rendering Red Value
  222,                                    !- Rendering Green Value
  133;                                    !- Rendering Blue Value

OS:SpaceType,
  {bd9d5b79-da0a-4479-b704-0470af1465e7}, !- Handle
  LargeHotel|Laundry|DOE Ref Pre-1980|ASHRAE 169-2006-5A, !- Name
  {b633627e-d99e-498c-a253-5b6b37562ccc}, !- Default Construction Set Name
  {fa1e3942-f616-48e5-9495-b36c0fc69248}, !- Default Schedule Set Name
  {f3866320-6506-46bb-a028-bcd0defc1251}, !- Group Rendering Name
  {36e34311-9cd7-4bb1-aff2-48a0adc25453}, !- Design Specification Outdoor Air Object Name
  LargeHotel,                             !- Standards Building Type
  Laundry;                                !- Standards Space Type

OS:Rendering:Color,
  {f3866320-6506-46bb-a028-bcd0defc1251}, !- Handle
  Rendering Color 6,                      !- Name
  120,                                    !- Rendering Red Value
  149,                                    !- Rendering Green Value
  230;                                    !- Rendering Blue Value

OS:Schedule:Ruleset,
  {29795ffa-a03e-4a07-9444-6cd5148dcd94}, !- Handle
  0600|2200|LargeHotel|default|hoo,       !- Name
  {d4de3973-5f2c-4a97-bb03-bd18c5bf9fee}, !- Schedule Type Limits Name
  {38cde617-abdd-4acc-ae55-051fbba087a1}, !- Default Day Schedule Name
  {963d0614-95e8-488d-8dbe-0c4d9dc0c3b2}, !- Summer Design Day Schedule Name
  {e1399bc3-24b0-445e-9920-41770b2b5920}; !- Winter Design Day Schedule Name

OS:Schedule:Day,
  {38cde617-abdd-4acc-ae55-051fbba087a1}, !- Handle
  0600|2200|LargeHotel|default|hoo Schedule Week Day, !- Name
  {d4de3973-5f2c-4a97-bb03-bd18c5bf9fee}, !- Schedule Type Limits Name
  ,                                       !- Interpolate to Timestep
  6,                                      !- Hour 1
  0,                                      !- Minute 1
  0,                                      !- Value Until Time 1
  22,                                     !- Hour 2
  0,                                      !- Minute 2
  1,                                      !- Value Until Time 2
  24,                                     !- Hour 3
  0,                                      !- Minute 3
  0;                                      !- Value Until Time 3

OS:Schedule:Day,
  {b39a719e-27f6-4f27-a1f9-01b994eb2d63}, !- Handle
  Schedule Day 2,                         !- Name
  ,                                       !- Schedule Type Limits Name
  ,                                       !- Interpolate to Timestep
  24,                                     !- Hour 1
  0,                                      !- Minute 1
  0;                                      !- Value Until Time 1

OS:Schedule:Day,
  {e1399bc3-24b0-445e-9920-41770b2b5920}, !- Handle
  0600|2200|LargeHotel|default|hoo Winter Design Day, !- Name
  {d4de3973-5f2c-4a97-bb03-bd18c5bf9fee}, !- Schedule Type Limits Name
  ,                                       !- Interpolate to Timestep
  24,                                     !- Hour 1
  0,                                      !- Minute 1
  0;                                      !- Value Until Time 1

OS:Schedule:Day,
  {c86c1e85-a0b8-4a2e-8916-c3d09d9221ad}, !- Handle
  Schedule Day 3,                         !- Name
  ,                                       !- Schedule Type Limits Name
  ,                                       !- Interpolate to Timestep
  24,                                     !- Hour 1
  0,                                      !- Minute 1
  0;                                      !- Value Until Time 1

OS:Schedule:Day,
  {963d0614-95e8-488d-8dbe-0c4d9dc0c3b2}, !- Handle
  0600|2200|LargeHotel|default|hoo Summer Design Day, !- Name
  {d4de3973-5f2c-4a97-bb03-bd18c5bf9fee}, !- Schedule Type Limits Name
  ,                                       !- Interpolate to Timestep
  24,                                     !- Hour 1
  0,                                      !- Minute 1
  1;                                      !- Value Until Time 1

OS:DefaultScheduleSet,
  {80166a45-e2ef-4926-b278-dcddc13cfcff}, !- Handle
  Building Hours of Operation,            !- Name
  {29795ffa-a03e-4a07-9444-6cd5148dcd94}, !- Hours of Operation Schedule Name
  ,                                       !- Number of People Schedule Name
  ,                                       !- People Activity Level Schedule Name
  ,                                       !- Lighting Schedule Name
  ,                                       !- Electric Equipment Schedule Name
  ,                                       !- Gas Equipment Schedule Name
  ,                                       !- Hot Water Equipment Schedule Name
  ,                                       !- Infiltration Schedule Name
  ,                                       !- Steam Equipment Schedule Name
  ;                                       !- Other Equipment Schedule Name

OS:ScheduleTypeLimits,
  {d4de3973-5f2c-4a97-bb03-bd18c5bf9fee}, !- Handle
  OnOff,                                  !- Name
  0,                                      !- Lower Limit Value {BasedOnField A4}
  1,                                      !- Upper Limit Value {BasedOnField A4}
  Discrete,                               !- Numeric Type
  Availability;                           !- Unit Type

OS:Schedule:Ruleset,
  {a56f4ae6-6d9e-4fad-ac0a-ecb98cd2e426}, !- Handle
  0600|2200|LargeHotel|Lobby|occ,         !- Name
  {003b3240-4271-4fab-8f35-0e7aa8e09aef}, !- Schedule Type Limits Name
  {54d710b9-8c42-4530-b7bd-52ad85eaa5b1}, !- Default Day Schedule Name
  {a301dcaf-49cc-49de-ba40-42a5d750b64f}, !- Summer Design Day Schedule Name
  {fb1e5b4e-5755-45eb-9452-72ed69cfa890}; !- Winter Design Day Schedule Name

OS:ScheduleTypeLimits,
  {003b3240-4271-4fab-8f35-0e7aa8e09aef}, !- Handle
  Occupancy Schedule Type Limits,         !- Name
  0,                                      !- Lower Limit Value {BasedOnField A4}
  1,                                      !- Upper Limit Value {BasedOnField A4}
  Continuous,                             !- Numeric Type
  Dimensionless;                          !- Unit Type

OS:Schedule:Day,
  {54d710b9-8c42-4530-b7bd-52ad85eaa5b1}, !- Handle
  0600|2200|LargeHotel|Lobby|occ |default, !- Name
  {003b3240-4271-4fab-8f35-0e7aa8e09aef}, !- Schedule Type Limits Name
  ,                                       !- Interpolate to Timestep
  5,                                      !- Hour 1
  0,                                      !- Minute 1
  0.1,                                    !- Value Until Time 1
  6,                                      !- Hour 2
  0,                                      !- Minute 2
  0.3,                                    !- Value Until Time 2
  10,                                     !- Hour 3
  0,                                      !- Minute 3
  0.7,                                    !- Value Until Time 3
  16,                                     !- Hour 4
  0,                                      !- Minute 4
  0.2,                                    !- Value Until Time 4
  18,                                     !- Hour 5
  0,                                      !- Minute 5
  0.4,                                    !- Value Until Time 5
  22,                                     !- Hour 6
  0,                                      !- Minute 6
  0.2,                                    !- Value Until Time 6
  24,                                     !- Hour 7
  0,                                      !- Minute 7
  0.1;                                    !- Value Until Time 7

OS:Schedule:Day,
  {a301dcaf-49cc-49de-ba40-42a5d750b64f}, !- Handle
  0600|2200|LargeHotel|Lobby|occ Summer Design Day, !- Name
  {003b3240-4271-4fab-8f35-0e7aa8e09aef}, !- Schedule Type Limits Name
  ,                                       !- Interpolate to Timestep
  5,                                      !- Hour 1
  0,                                      !- Minute 1
  0.1,                                    !- Value Until Time 1
  10,                                     !- Hour 2
  0,                                      !- Minute 2
  1,                                      !- Value Until Time 2
  16,                                     !- Hour 3
  0,                                      !- Minute 3
  0.2,                                    !- Value Until Time 3
  18,                                     !- Hour 4
  0,                                      !- Minute 4
  1,                                      !- Value Until Time 4
  22,                                     !- Hour 5
  0,                                      !- Minute 5
  0.2,                                    !- Value Until Time 5
  24,                                     !- Hour 6
  0,                                      !- Minute 6
  0.1;                                    !- Value Until Time 6

OS:Schedule:Day,
  {fb1e5b4e-5755-45eb-9452-72ed69cfa890}, !- Handle
  0600|2200|LargeHotel|Lobby|occ Winter Design Day, !- Name
  {003b3240-4271-4fab-8f35-0e7aa8e09aef}, !- Schedule Type Limits Name
  ,                                       !- Interpolate to Timestep
  24,                                     !- Hour 1
  0,                                      !- Minute 1
  0;                                      !- Value Until Time 1

OS:Schedule:Rule,
  {8d733080-8509-499f-b302-a6e9845b41e9}, !- Handle
  0600|2200|LargeHotel|Lobby|occ |1/1-12/31|Sat/Sun Rule, !- Name
  {a56f4ae6-6d9e-4fad-ac0a-ecb98cd2e426}, !- Schedule Ruleset Name
  0,                                      !- Rule Order
  {2de0c7c6-0ac6-437b-a84a-33811811cced}, !- Day Schedule Name
  Yes,                                    !- Apply Sunday
  ,                                       !- Apply Monday
  ,                                       !- Apply Tuesday
  ,                                       !- Apply Wednesday
  ,                                       !- Apply Thursday
  ,                                       !- Apply Friday
  Yes,                                    !- Apply Saturday
  ,                                       !- Apply Holiday
  DateRange,                              !- Date Specification Type
  1,                                      !- Start Month
  1,                                      !- Start Day
  12,                                     !- End Month
  31;                                     !- End Day

OS:Schedule:Day,
  {2de0c7c6-0ac6-437b-a84a-33811811cced}, !- Handle
  0600|2200|LargeHotel|Lobby|occ |1/1-12/31|Sat/Sun, !- Name
  {003b3240-4271-4fab-8f35-0e7aa8e09aef}, !- Schedule Type Limits Name
  ,                                       !- Interpolate to Timestep
  6,                                      !- Hour 1
  0,                                      !- Minute 1
  0.1,                                    !- Value Until Time 1
  7,                                      !- Hour 2
  0,                                      !- Minute 2
  0.3,                                    !- Value Until Time 2
  10,                                     !- Hour 3
  0,                                      !- Minute 3
  0.7,                                    !- Value Until Time 3
  22,                                     !- Hour 4
  0,                                      !- Minute 4
  0.2,                                    !- Value Until Time 4
  24,                                     !- Hour 5
  0,                                      !- Minute 5
  0.1;                                    !- Value Until Time 5

OS:Schedule:Ruleset,
  {265cd283-62e4-4589-857b-dbebbbc4cb3d}, !- Handle
  0600|2200|LargeHotel|default|infiltration, !- Name
  {c70083dc-e7bb-4b87-a051-a466698bb2c5}, !- Schedule Type Limits Name
  {531a70fc-08b3-4728-80c6-2b3a95e471bd}, !- Default Day Schedule Name
  {4de19294-b4fc-4e67-9d9d-d0ad0f985639}, !- Summer Design Day Schedule Name
  {0ea837d1-555c-4527-8f70-0559b71621ae}; !- Winter Design Day Schedule Name

OS:ScheduleTypeLimits,
  {c70083dc-e7bb-4b87-a051-a466698bb2c5}, !- Handle
  Fraction Schedule Type Limits,          !- Name
  0,                                      !- Lower Limit Value {BasedOnField A4}
  1,                                      !- Upper Limit Value {BasedOnField A4}
  Continuous,                             !- Numeric Type
  Dimensionless;                          !- Unit Type

OS:Schedule:Day,
  {531a70fc-08b3-4728-80c6-2b3a95e471bd}, !- Handle
  0600|2200|LargeHotel|default|infiltration |default, !- Name
  {c70083dc-e7bb-4b87-a051-a466698bb2c5}, !- Schedule Type Limits Name
  ,                                       !- Interpolate to Timestep
  24,                                     !- Hour 1
  0,                                      !- Minute 1
  0.25;                                   !- Value Until Time 1

OS:Schedule:Day,
  {4de19294-b4fc-4e67-9d9d-d0ad0f985639}, !- Handle
  0600|2200|LargeHotel|default|infiltration Summer Design Day, !- Name
  {c70083dc-e7bb-4b87-a051-a466698bb2c5}, !- Schedule Type Limits Name
  ,                                       !- Interpolate to Timestep
  24,                                     !- Hour 1
  0,                                      !- Minute 1
  0.25;                                   !- Value Until Time 1

OS:Schedule:Day,
  {0ea837d1-555c-4527-8f70-0559b71621ae}, !- Handle
  0600|2200|LargeHotel|default|infiltration Winter Design Day, !- Name
  {c70083dc-e7bb-4b87-a051-a466698bb2c5}, !- Schedule Type Limits Name
  ,                                       !- Interpolate to Timestep
  24,                                     !- Hour 1
  0,                                      !- Minute 1
  0.25;                                   !- Value Until Time 1

OS:Schedule:Ruleset,
  {22e2dcba-a86e-44d1-b9fc-3fa3f6c354df}, !- Handle
  0600|2200|LargeHotel|default|clg_setpoint, !- Name
  {a5c95c59-9a66-47c1-aa1e-406274ad04f1}, !- Schedule Type Limits Name
  {099920c6-d316-4410-a107-b3ce000b70c2}, !- Default Day Schedule Name
  {e69c49bd-6fc4-4f03-80c3-757bb3fc4b7e}, !- Summer Design Day Schedule Name
  {4e9bf299-55ab-419f-a74b-e666c13a04c0}; !- Winter Design Day Schedule Name

OS:ScheduleTypeLimits,
  {a5c95c59-9a66-47c1-aa1e-406274ad04f1}, !- Handle
  Thermostat Cooling Setpoint Schedule Type Limits, !- Name
  0,                                      !- Lower Limit Value {BasedOnField A4}
  100,                                    !- Upper Limit Value {BasedOnField A4}
  Continuous,                             !- Numeric Type
  Temperature;                            !- Unit Type

OS:Schedule:Day,
  {099920c6-d316-4410-a107-b3ce000b70c2}, !- Handle
  0600|2200|LargeHotel|default|clg_setpoint |default, !- Name
  {a5c95c59-9a66-47c1-aa1e-406274ad04f1}, !- Schedule Type Limits Name
  ,                                       !- Interpolate to Timestep
  24,                                     !- Hour 1
  0,                                      !- Minute 1
  24.0000000000001;                       !- Value Until Time 1

OS:Schedule:Day,
  {e69c49bd-6fc4-4f03-80c3-757bb3fc4b7e}, !- Handle
  0600|2200|LargeHotel|default|clg_setpoint Summer Design Day, !- Name
  {a5c95c59-9a66-47c1-aa1e-406274ad04f1}, !- Schedule Type Limits Name
  ,                                       !- Interpolate to Timestep
  24,                                     !- Hour 1
  0,                                      !- Minute 1
  24.0000000000001;                       !- Value Until Time 1

OS:Schedule:Day,
  {4e9bf299-55ab-419f-a74b-e666c13a04c0}, !- Handle
  0600|2200|LargeHotel|default|clg_setpoint Winter Design Day, !- Name
  {a5c95c59-9a66-47c1-aa1e-406274ad04f1}, !- Schedule Type Limits Name
  ,                                       !- Interpolate to Timestep
  24,                                     !- Hour 1
  0,                                      !- Minute 1
  24.0000000000001;                       !- Value Until Time 1

OS:Schedule:Ruleset,
  {5af91d6b-1cdf-4273-82d9-66f352dedd8d}, !- Handle
  0600|2200|LargeHotel|GuestRoom|elec_equip, !- Name
  {cb4fceaa-2797-4f37-868b-4a053e6124a9}, !- Schedule Type Limits Name
  {452cad30-9e84-4736-9d5b-ec10ef364d81}, !- Default Day Schedule Name
  {7cdf838f-86e2-46b8-abd5-8068ace6452e}, !- Summer Design Day Schedule Name
  {ce5cda73-67d6-4fd6-bfdd-76cb04a3039f}; !- Winter Design Day Schedule Name

OS:ScheduleTypeLimits,
  {cb4fceaa-2797-4f37-868b-4a053e6124a9}, !- Handle
  Equipment Schedule Type Limits,         !- Name
  0,                                      !- Lower Limit Value {BasedOnField A4}
  1,                                      !- Upper Limit Value {BasedOnField A4}
  Continuous,                             !- Numeric Type
  Dimensionless;                          !- Unit Type

OS:Schedule:Day,
  {452cad30-9e84-4736-9d5b-ec10ef364d81}, !- Handle
  0600|2200|LargeHotel|GuestRoom|elec_equip |default, !- Name
  {cb4fceaa-2797-4f37-868b-4a053e6124a9}, !- Schedule Type Limits Name
  ,                                       !- Interpolate to Timestep
  6,                                      !- Hour 1
  0,                                      !- Minute 1
  0.2,                                    !- Value Until Time 1
  7,                                      !- Hour 2
  0,                                      !- Minute 2
  0.62,                                   !- Value Until Time 2
  8,                                      !- Hour 3
  0,                                      !- Minute 3
  0.9,                                    !- Value Until Time 3
  10,                                     !- Hour 4
  0,                                      !- Minute 4
  0.43,                                   !- Value Until Time 4
  17,                                     !- Hour 5
  0,                                      !- Minute 5
  0.26,                                   !- Value Until Time 5
  19,                                     !- Hour 6
  0,                                      !- Minute 6
  0.51,                                   !- Value Until Time 6
  20,                                     !- Hour 7
  0,                                      !- Minute 7
  0.49,                                   !- Value Until Time 7
  21,                                     !- Hour 8
  0,                                      !- Minute 8
  0.66,                                   !- Value Until Time 8
  22,                                     !- Hour 9