
OS:Version,
  {abd67b32-f6f2-4143-9940-16e775007678}, !- Handle
  1.5.5;                                  !- Version Identifier

OS:ClimateZones,
  {135edfab-17e7-40db-a436-27d385a8cd6d}, !- Handle
  ,                                       !- Active Institution
  ,                                       !- Active Year
  ASHRAE,                                 !- Climate Zone Institution Name 1
  ANSI/ASHRAE Standard 169,               !- Climate Zone Document Name 1
  2006,                                   !- Climate Zone Document Year 1
  ,                                       !- Climate Zone Value 1
  CEC,                                    !- Climate Zone Institution Name 2
  California Climate Zone Descriptions,   !- Climate Zone Document Name 2
  1995,                                   !- Climate Zone Document Year 2
  ;                                       !- Climate Zone Value 2

OS:YearDescription,
  {513d8dda-86cb-442a-b01c-1f7f0e0ac70e}; !- Handle

OS:RadianceParameters,
  {270a96f1-3c86-4b75-a667-cdf22790e2c8}, !- Handle
  1,                                      !- Accumulated Rays per Record
  0,                                      !- Direct Threshold
  1,                                      !- Direct Certainty
  1,                                      !- Direct Jitter
  1,                                      !- Direct Pretest
  6,                                      !- Ambient Bounces VMX
  2,                                      !- Ambient Bounces DMX
  4050,                                   !- Ambient Divisions VMX
  512,                                    !- Ambient Divisions DMX
  256,                                    !- Ambient Supersamples
  0.001,                                  !- Limit Weight VMX
  0.001,                                  !- Limit Weight DMX
  500,                                    !- Klems Sampling Density
  146;                                    !- Sky Discretization Resolution

OS:SimulationControl,
  {2c487a4c-bac9-4ac5-b669-1e49d9da7c2b}, !- Handle
  ,                                       !- Do Zone Sizing Calculation
  ,                                       !- Do System Sizing Calculation
  ,                                       !- Do Plant Sizing Calculation
  No,                                     !- Run Simulation for Sizing Periods
  ,                                       !- Run Simulation for Weather File Run Periods
  0.04,                                   !- Loads Convergence Tolerance Value
  ,                                       !- Temperature Convergence Tolerance Value {deltaC}
  ,                                       !- Solar Distribution
  ,                                       !- Maximum Number of Warmup Days
  2;                                      !- Minimum Number of Warmup Days

OS:Sizing:Parameters,
  {dde5af6f-7923-4600-a28a-7556673a0266}, !- Handle
  1.25,                                   !- Heating Sizing Factor
  1.15;                                   !- Cooling Sizing Factor

OS:ProgramControl,
  {05027a99-f2b3-4aeb-afc6-1425fbb4371d}; !- Handle

OS:Timestep,
  {4ebc9f1e-4707-402e-9844-67eb1ffbd522}, !- Handle
  2;                                      !- Number of Timesteps per Hour

OS:OutputControl:ReportingTolerances,
  {65797aa2-06a9-45fe-b69d-bc6e060399d3}; !- Handle

OS:ConvergenceLimits,
  {9fc11aba-8822-4f3d-970c-46391ba4040d}; !- Handle

OS:ShadowCalculation,
  {ca758bea-4416-4626-9bba-3d8795c79bd6}, !- Handle
  7,                                      !- Calculation Frequency
  15000;                                  !- Maximum Figures in Shadow Overlap Calculations

OS:SurfaceConvectionAlgorithm:Inside,
  {aaabfc36-718a-4ab0-b622-f186ebb45230}, !- Handle
  TARP;                                   !- Algorithm

OS:SurfaceConvectionAlgorithm:Outside,
  {9a0a9f6f-4bbd-4b12-a121-9492a1fcd7d6}, !- Handle
  DOE-2;                                  !- Algorithm

OS:HeatBalanceAlgorithm,
  {9d93e563-e1e0-46d7-9e39-d1c8aceb7212}, !- Handle
  ConductionTransferFunction,             !- Algorithm
  200;                                    !- Surface Temperature Upper Limit {F}

OS:ZoneAirHeatBalanceAlgorithm,
  {8520d93e-310f-4696-9bcd-36228bfdd743}, !- Handle
  AnalyticalSolution;                     !- Algorithm

OS:ZoneAirContaminantBalance,
  {eb5fc3ae-fb22-4160-8fcb-3e3b22b000d3}; !- Handle

OS:ZoneCapacitanceMultiplier:ResearchSpecial,
  {4020ce4f-5a7a-4849-8028-8305d7b751b1}, !- Handle
  ,                                       !- Temperature Capacity Multiplier
  ,                                       !- Humidity Capacity Multiplier
  ;                                       !- Carbon Dioxide Capacity Multiplier

OS:RunPeriod,
  {28df894d-6af9-4fb8-8f56-df1753344aa3}, !- Handle
  Run Period 1,                           !- Name
  1,                                      !- Begin Month
  1,                                      !- Begin Day of Month
  12,                                     !- End Month
  31,                                     !- End Day of Month
  ,                                       !- Use Weather File Holidays and Special Days
  ,                                       !- Use Weather File Daylight Saving Period
  ,                                       !- Apply Weekend Holiday Rule
  ,                                       !- Use Weather File Rain Indicators
  ,                                       !- Use Weather File Snow Indicators
  ;                                       !- Number of Times Runperiod to be Repeated

OS:Building,
  {bf305633-c5a1-4881-9edf-ca5e1a8e1274}, !- Handle
  Building 1,                             !- Name
  ,                                       !- Building Sector Type
  ,                                       !- North Axis {deg}
  ,                                       !- Nominal Floor to Floor Height {m}
  ,                                       !- Space Type Name
  ,                                       !- Default Construction Set Name
  {139f3987-ccde-4d10-958f-cc273e3762f9}, !- Default Schedule Set Name
  ,                                       !- Standards Number of Stories
  ,                                       !- Standards Number of Above Ground Stories
  LargeHotel;                             !- Standards Building Type

OS:LifeCycleCost:Parameters,
  {231cf8a0-f0e7-4251-a99f-11f0d464e661}, !- Handle
  FEMP,                                   !- Analysis Type
  ,                                       !- Discounting Convention
  ,                                       !- Inflation Approach
  ,                                       !- Real Discount Rate
  ,                                       !- Nominal Discount Rate
  ,                                       !- Inflation
  ,                                       !- Base Date Month
  ,                                       !- Base Date Year
  ,                                       !- Service Date Month
  ,                                       !- Service Date Year
  ,                                       !- Length of Study Period in Years
  ,                                       !- Tax Rate
  ,                                       !- Depreciation Method
  Yes;                                    !- Use NIST Fuel Escalation Rates

OS:Facility,
  {3ba8e45b-b833-44eb-a723-ea6c3946dc96}; !- Handle

OS:SpaceType,
  {0d85bfeb-7a99-4d04-8e8c-9d9b1efe558b}, !- Handle
  LargeHotel|BlendGst|DOE Ref 2004|ASHRAE 169-2006-5A, !- Name
  {2af2c581-a9cc-4fcb-b7c6-d5da3db02b83}, !- Default Construction Set Name
  ,                                       !- Default Schedule Set Name
  {d0bd2dfd-0acd-4113-aea8-3ade0c6de572}, !- Group Rendering Name
  {62111387-b663-4a9b-90be-305b2729add2}, !- Design Specification Outdoor Air Object Name
  LargeHotel,                             !- Standards Building Type
  BlendGst;                               !- Standards Space Type

OS:Rendering:Color,
  {d0bd2dfd-0acd-4113-aea8-3ade0c6de572}, !- Handle
  Rendering Color 1,                      !- Name
  78,                                     !- Rendering Red Value
  167,                                    !- Rendering Green Value
  222;                                    !- Rendering Blue Value

OS:SpaceType,
  {445aa0e9-eff7-42be-8d76-2890587de2ee}, !- Handle
  LargeHotel|BlendLob|DOE Ref 2004|ASHRAE 169-2006-5A, !- Name
  {2af2c581-a9cc-4fcb-b7c6-d5da3db02b83}, !- Default Construction Set Name
  ,                                       !- Default Schedule Set Name
  {a8f5a64a-0ada-43c8-b608-2ab07cc97af1}, !- Group Rendering Name
  {51b96359-a48e-4102-82ec-585ae82f9f6b}, !- Design Specification Outdoor Air Object Name
  LargeHotel,                             !- Standards Building Type
  BlendLob;                               !- Standards Space Type

OS:Rendering:Color,
  {a8f5a64a-0ada-43c8-b608-2ab07cc97af1}, !- Handle
  Rendering Color 2,                      !- Name
  230,                                    !- Rendering Red Value
  157,                                    !- Rendering Green Value
  120;                                    !- Rendering Blue Value

OS:SpaceType,
  {f7784fa1-0cef-46c9-9fc9-c7cec4087ac1}, !- Handle
  LargeHotel|BlendFds|DOE Ref 2004|ASHRAE 169-2006-5A, !- Name
  {2af2c581-a9cc-4fcb-b7c6-d5da3db02b83}, !- Default Construction Set Name
  ,                                       !- Default Schedule Set Name
  {2b884e09-2ffc-4f43-bb5d-05f108985cd4}, !- Group Rendering Name
  {886b29fb-fe96-4c18-998c-1907fc657de4}, !- Design Specification Outdoor Air Object Name
  LargeHotel,                             !- Standards Building Type
  BlendFds;                               !- Standards Space Type

OS:Rendering:Color,
  {2b884e09-2ffc-4f43-bb5d-05f108985cd4}, !- Handle
  Rendering Color 3,                      !- Name
  230,                                    !- Rendering Red Value
  196,                                    !- Rendering Green Value
  120;                                    !- Rendering Blue Value

OS:SpaceType,
  {9340f2dc-7465-4d0f-ab73-6ffa181775e0}, !- Handle
  LargeHotel|BlendMisc|DOE Ref 2004|ASHRAE 169-2006-5A, !- Name
  {2af2c581-a9cc-4fcb-b7c6-d5da3db02b83}, !- Default Construction Set Name
  ,                                       !- Default Schedule Set Name
  {344b6418-9e6a-47f7-a657-9ff702495d48}, !- Group Rendering Name
  {5a798a03-b989-48ff-ad0e-81c1c64d8c73}, !- Design Specification Outdoor Air Object Name
  LargeHotel,                             !- Standards Building Type
  BlendMisc;                              !- Standards Space Type

OS:Rendering:Color,
  {344b6418-9e6a-47f7-a657-9ff702495d48}, !- Handle
  Rendering Color 4,                      !- Name
  41,                                     !- Rendering Red Value
  31,                                     !- Rendering Green Value
  169;                                    !- Rendering Blue Value

OS:SpaceType,
  {1e0bac12-6175-4d8a-8d20-5ad6eb240d62}, !- Handle
  LargeHotel|Kitchen|DOE Ref 2004|ASHRAE 169-2006-5A, !- Name
  {2af2c581-a9cc-4fcb-b7c6-d5da3db02b83}, !- Default Construction Set Name
  {a73096ea-abe0-4e45-888a-108ea9e9cefb}, !- Default Schedule Set Name
  {9d9f1e1c-eea3-4b95-93a5-a31f2b0bdc0d}, !- Group Rendering Name
  {8026d26f-18e9-45b9-ae48-108c75bcd1b7}, !- Design Specification Outdoor Air Object Name
  LargeHotel,                             !- Standards Building Type
  Kitchen;                                !- Standards Space Type

OS:Rendering:Color,
  {9d9f1e1c-eea3-4b95-93a5-a31f2b0bdc0d}, !- Handle
  Rendering Color 5,                      !- Name
  78,                                     !- Rendering Red Value
  222,                                    !- Rendering Green Value
  133;                                    !- Rendering Blue Value

OS:SpaceType,
  {2ca8aea3-3bc8-475f-91c2-d1f066e31236}, !- Handle
  LargeHotel|Laundry|DOE Ref 2004|ASHRAE 169-2006-5A, !- Name
  {2af2c581-a9cc-4fcb-b7c6-d5da3db02b83}, !- Default Construction Set Name
  {644b51b4-ccad-418e-ac45-6408629f7401}, !- Default Schedule Set Name
  {f066d417-3c70-4b1e-a64b-c1d04bef66d3}, !- Group Rendering Name
  {9572ee12-9010-4992-ad3e-4e01e33faac5}, !- Design Specification Outdoor Air Object Name
  LargeHotel,                             !- Standards Building Type
  Laundry;                                !- Standards Space Type

OS:Rendering:Color,
  {f066d417-3c70-4b1e-a64b-c1d04bef66d3}, !- Handle
  Rendering Color 6,                      !- Name
  120,                                    !- Rendering Red Value
  149,                                    !- Rendering Green Value
  230;                                    !- Rendering Blue Value

OS:Schedule:Ruleset,
  {c270e2d7-de90-4420-99ee-3ab25c5555e7}, !- Handle
  0600|2200|LargeHotel|default|hoo,       !- Name
  {74f76f4e-7cff-4107-8d5b-1d133de45a4a}, !- Schedule Type Limits Name
  {3ce4a123-dcc2-4478-8029-0f3bb5c19867}, !- Default Day Schedule Name
  {6d2d8c0a-3bd9-46f7-97d3-a6570d380184}, !- Summer Design Day Schedule Name
  {102a4ce8-37a7-4fcf-a64d-9fbb263632df}; !- Winter Design Day Schedule Name

OS:Schedule:Day,
  {3ce4a123-dcc2-4478-8029-0f3bb5c19867}, !- Handle
  0600|2200|LargeHotel|default|hoo Schedule Week Day, !- Name
  {74f76f4e-7cff-4107-8d5b-1d133de45a4a}, !- Schedule Type Limits Name
  ,                                       !- Interpolate to Timestep
  6,                                      !- Hour 1
  0,                                      !- Minute 1
  0,                                      !- Value Until Time 1
  22,                                     !- Hour 2
  0,                                      !- Minute 2
  1,                                      !- Value Until Time 2
  24,                                     !- Hour 3
  0,                                      !- Minute 3
  0;                                      !- Value Until Time 3

OS:Schedule:Day,
  {c9df8ec3-da9f-4b7e-90af-315850f55ae0}, !- Handle
  Schedule Day 2,                         !- Name
  ,                                       !- Schedule Type Limits Name
  ,                                       !- Interpolate to Timestep
  24,                                     !- Hour 1
  0,                                      !- Minute 1
  0;                                      !- Value Until Time 1

OS:Schedule:Day,
  {102a4ce8-37a7-4fcf-a64d-9fbb263632df}, !- Handle
  0600|2200|LargeHotel|default|hoo Winter Design Day, !- Name
  {74f76f4e-7cff-4107-8d5b-1d133de45a4a}, !- Schedule Type Limits Name
  ,                                       !- Interpolate to Timestep
  24,                                     !- Hour 1
  0,                                      !- Minute 1
  0;                                      !- Value Until Time 1

OS:Schedule:Day,
  {44848178-6e1f-4e13-8737-4ef035a812a0}, !- Handle
  Schedule Day 3,                         !- Name
  ,                                       !- Schedule Type Limits Name
  ,                                       !- Interpolate to Timestep
  24,                                     !- Hour 1
  0,                                      !- Minute 1
  0;                                      !- Value Until Time 1

OS:Schedule:Day,
  {6d2d8c0a-3bd9-46f7-97d3-a6570d380184}, !- Handle
  0600|2200|LargeHotel|default|hoo Summer Design Day, !- Name
  {74f76f4e-7cff-4107-8d5b-1d133de45a4a}, !- Schedule Type Limits Name
  ,                                       !- Interpolate to Timestep
  24,                                     !- Hour 1
  0,                                      !- Minute 1
  1;                                      !- Value Until Time 1

OS:DefaultScheduleSet,
  {139f3987-ccde-4d10-958f-cc273e3762f9}, !- Handle
  Building Hours of Operation,            !- Name
  {c270e2d7-de90-4420-99ee-3ab25c5555e7}, !- Hours of Operation Schedule Name
  ,                                       !- Number of People Schedule Name
  ,                                       !- People Activity Level Schedule Name
  ,                                       !- Lighting Schedule Name
  ,                                       !- Electric Equipment Schedule Name
  ,                                       !- Gas Equipment Schedule Name
  ,                                       !- Hot Water Equipment Schedule Name
  ,                                       !- Infiltration Schedule Name
  ,                                       !- Steam Equipment Schedule Name
  ;                                       !- Other Equipment Schedule Name

OS:ScheduleTypeLimits,
  {74f76f4e-7cff-4107-8d5b-1d133de45a4a}, !- Handle
  OnOff,                                  !- Name
  0,                                      !- Lower Limit Value {BasedOnField A4}
  1,                                      !- Upper Limit Value {BasedOnField A4}
  Discrete,                               !- Numeric Type
  Availability;                           !- Unit Type

OS:Schedule:Ruleset,
  {80295cab-dcca-40b7-9662-823e36a2c533}, !- Handle
  0600|2200|LargeHotel|Lobby|occ,         !- Name
  {d2d8c2cc-c19d-41b4-97ec-2c60a17d84de}, !- Schedule Type Limits Name
  {fd3e05ad-7b04-40fd-922b-5178073e9e91}, !- Default Day Schedule Name
  {3507fadf-1a94-41e7-9d80-33cb0ff8c469}, !- Summer Design Day Schedule Name
  {918ac782-bc07-4fc1-9d3c-07c6a67cc0f9}; !- Winter Design Day Schedule Name

OS:ScheduleTypeLimits,
  {d2d8c2cc-c19d-41b4-97ec-2c60a17d84de}, !- Handle
  Occupancy Schedule Type Limits,         !- Name
  0,                                      !- Lower Limit Value {BasedOnField A4}
  1,                                      !- Upper Limit Value {BasedOnField A4}
  Continuous,                             !- Numeric Type
  Dimensionless;                          !- Unit Type

OS:Schedule:Day,
  {fd3e05ad-7b04-40fd-922b-5178073e9e91}, !- Handle
  0600|2200|LargeHotel|Lobby|occ |default, !- Name
  {d2d8c2cc-c19d-41b4-97ec-2c60a17d84de}, !- Schedule Type Limits Name
  ,                                       !- Interpolate to Timestep
  5,                                      !- Hour 1
  0,                                      !- Minute 1
  0.1,                                    !- Value Until Time 1
  6,                                      !- Hour 2
  0,                                      !- Minute 2
  0.3,                                    !- Value Until Time 2
  10,                                     !- Hour 3
  0,                                      !- Minute 3
  0.7,                                    !- Value Until Time 3
  16,                                     !- Hour 4
  0,                                      !- Minute 4
  0.2,                                    !- Value Until Time 4
  18,                                     !- Hour 5
  0,                                      !- Minute 5
  0.4,                                    !- Value Until Time 5
  22,                                     !- Hour 6
  0,                                      !- Minute 6
  0.2,                                    !- Value Until Time 6
  24,                                     !- Hour 7
  0,                                      !- Minute 7
  0.1;                                    !- Value Until Time 7

OS:Schedule:Day,
  {3507fadf-1a94-41e7-9d80-33cb0ff8c469}, !- Handle
  0600|2200|LargeHotel|Lobby|occ Summer Design Day, !- Name
  {d2d8c2cc-c19d-41b4-97ec-2c60a17d84de}, !- Schedule Type Limits Name
  ,                                       !- Interpolate to Timestep
  5,                                      !- Hour 1
  0,                                      !- Minute 1
  0.1,                                    !- Value Until Time 1
  10,                                     !- Hour 2
  0,                                      !- Minute 2
  1,                                      !- Value Until Time 2
  16,                                     !- Hour 3
  0,                                      !- Minute 3
  0.2,                                    !- Value Until Time 3
  18,                                     !- Hour 4
  0,                                      !- Minute 4
  1,                                      !- Value Until Time 4
  22,                                     !- Hour 5
  0,                                      !- Minute 5
  0.2,                                    !- Value Until Time 5
  24,                                     !- Hour 6
  0,                                      !- Minute 6
  0.1;                                    !- Value Until Time 6

OS:Schedule:Day,
  {918ac782-bc07-4fc1-9d3c-07c6a67cc0f9}, !- Handle
  0600|2200|LargeHotel|Lobby|occ Winter Design Day, !- Name
  {d2d8c2cc-c19d-41b4-97ec-2c60a17d84de}, !- Schedule Type Limits Name
  ,                                       !- Interpolate to Timestep
  24,                                     !- Hour 1
  0,                                      !- Minute 1
  0;                                      !- Value Until Time 1

OS:Schedule:Rule,
  {2a0bf6ab-e72d-445b-9eab-73af455f3158}, !- Handle
  0600|2200|LargeHotel|Lobby|occ |1/1-12/31|Sat/Sun Rule, !- Name
  {80295cab-dcca-40b7-9662-823e36a2c533}, !- Schedule Ruleset Name
  0,                                      !- Rule Order
  {a01af0ea-f3ad-4ab7-8732-98d48eb64da5}, !- Day Schedule Name
  Yes,                                    !- Apply Sunday
  ,                                       !- Apply Monday
  ,                                       !- Apply Tuesday
  ,                                       !- Apply Wednesday
  ,                                       !- Apply Thursday
  ,                                       !- Apply Friday
  Yes,                                    !- Apply Saturday
  ,                                       !- Apply Holiday
  DateRange,                              !- Date Specification Type
  1,                                      !- Start Month
  1,                                      !- Start Day
  12,                                     !- End Month
  31;                                     !- End Day

OS:Schedule:Day,
  {a01af0ea-f3ad-4ab7-8732-98d48eb64da5}, !- Handle
  0600|2200|LargeHotel|Lobby|occ |1/1-12/31|Sat/Sun, !- Name
  {d2d8c2cc-c19d-41b4-97ec-2c60a17d84de}, !- Schedule Type Limits Name
  ,                                       !- Interpolate to Timestep
  6,                                      !- Hour 1
  0,                                      !- Minute 1
  0.1,                                    !- Value Until Time 1
  7,                                      !- Hour 2
  0,                                      !- Minute 2
  0.3,                                    !- Value Until Time 2
  10,                                     !- Hour 3
  0,                                      !- Minute 3
  0.7,                                    !- Value Until Time 3
  22,                                     !- Hour 4
  0,                                      !- Minute 4
  0.2,                                    !- Value Until Time 4
  24,                                     !- Hour 5
  0,                                      !- Minute 5
  0.1;                                    !- Value Until Time 5

OS:Schedule:Ruleset,
  {6014cd9b-cc50-4a05-8160-c42fe458dc48}, !- Handle
  0600|2200|LargeHotel|default|infiltration, !- Name
  {73030a04-add3-406a-b68f-895e69f70ebd}, !- Schedule Type Limits Name
  {027afe49-a41f-42a2-a96a-e717f7571e33}, !- Default Day Schedule Name
  {25998e09-ad84-457a-84a2-43c6767b5c36}, !- Summer Design Day Schedule Name
  {869713b8-4ae6-4e6c-b8c3-746084ba1d78}; !- Winter Design Day Schedule Name

OS:ScheduleTypeLimits,
  {73030a04-add3-406a-b68f-895e69f70ebd}, !- Handle
  Fraction Schedule Type Limits,          !- Name
  0,                                      !- Lower Limit Value {BasedOnField A4}
  1,                                      !- Upper Limit Value {BasedOnField A4}
  Continuous,                             !- Numeric Type
  Dimensionless;                          !- Unit Type

OS:Schedule:Day,
  {027afe49-a41f-42a2-a96a-e717f7571e33}, !- Handle
  0600|2200|LargeHotel|default|infiltration |default, !- Name
  {73030a04-add3-406a-b68f-895e69f70ebd}, !- Schedule Type Limits Name
  ,                                       !- Interpolate to Timestep
  24,                                     !- Hour 1
  0,                                      !- Minute 1
  0.25;                                   !- Value Until Time 1

OS:Schedule:Day,
  {25998e09-ad84-457a-84a2-43c6767b5c36}, !- Handle
  0600|2200|LargeHotel|default|infiltration Summer Design Day, !- Name
  {73030a04-add3-406a-b68f-895e69f70ebd}, !- Schedule Type Limits Name
  ,                                       !- Interpolate to Timestep
  24,                                     !- Hour 1
  0,                                      !- Minute 1
  0.25;                                   !- Value Until Time 1

OS:Schedule:Day,
  {869713b8-4ae6-4e6c-b8c3-746084ba1d78}, !- Handle
  0600|2200|LargeHotel|default|infiltration Winter Design Day, !- Name
  {73030a04-add3-406a-b68f-895e69f70ebd}, !- Schedule Type Limits Name
  ,                                       !- Interpolate to Timestep
  24,                                     !- Hour 1
  0,                                      !- Minute 1
  0.25;                                   !- Value Until Time 1

OS:Schedule:Ruleset,
  {de5013eb-58fd-455b-a6b3-73b6a5ad6b64}, !- Handle
  0600|2200|LargeHotel|default|clg_setpoint, !- Name
  {93fca917-4e4a-4da0-bb70-e5888f5a9629}, !- Schedule Type Limits Name
  {ecc95a64-7b7b-4e57-80e1-2fdef2d33489}, !- Default Day Schedule Name
  {d7e88651-ae46-41f5-8538-469b0dffa168}, !- Summer Design Day Schedule Name
  {bcc73519-03a7-4cbb-8b23-44388c32b836}; !- Winter Design Day Schedule Name

OS:ScheduleTypeLimits,
  {93fca917-4e4a-4da0-bb70-e5888f5a9629}, !- Handle
  Thermostat Cooling Setpoint Schedule Type Limits, !- Name
  0,                                      !- Lower Limit Value {BasedOnField A4}
  100,                                    !- Upper Limit Value {BasedOnField A4}
  Continuous,                             !- Numeric Type
  Temperature;                            !- Unit Type

OS:Schedule:Day,
  {ecc95a64-7b7b-4e57-80e1-2fdef2d33489}, !- Handle
  0600|2200|LargeHotel|default|clg_setpoint |default, !- Name
  {93fca917-4e4a-4da0-bb70-e5888f5a9629}, !- Schedule Type Limits Name
  ,                                       !- Interpolate to Timestep
  24,                                     !- Hour 1
  0,                                      !- Minute 1
  24.0000000000001;                       !- Value Until Time 1

OS:Schedule:Day,
  {d7e88651-ae46-41f5-8538-469b0dffa168}, !- Handle
  0600|2200|LargeHotel|default|clg_setpoint Summer Design Day, !- Name
  {93fca917-4e4a-4da0-bb70-e5888f5a9629}, !- Schedule Type Limits Name
  ,                                       !- Interpolate to Timestep
  24,                                     !- Hour 1
  0,                                      !- Minute 1
  24.0000000000001;                       !- Value Until Time 1

OS:Schedule:Day,
  {bcc73519-03a7-4cbb-8b23-44388c32b836}, !- Handle
  0600|2200|LargeHotel|default|clg_setpoint Winter Design Day, !- Name
  {93fca917-4e4a-4da0-bb70-e5888f5a9629}, !- Schedule Type Limits Name
  ,                                       !- Interpolate to Timestep
  24,                                     !- Hour 1
  0,                                      !- Minute 1
  24.0000000000001;                       !- Value Until Time 1

OS:Schedule:Ruleset,
  {06eedd01-773a-4982-b4bb-c802e6e0c6f4}, !- Handle
  0600|2200|LargeHotel|GuestRoom|elec_equip, !- Name
  {dcd08081-8ab6-4b54-b635-68fd86c5184f}, !- Schedule Type Limits Name
  {8a8cc23a-f2c7-44c1-bd3f-59e5dfe35cda}, !- Default Day Schedule Name
  {b92bf2ba-763f-408a-b49a-666fa5015986}, !- Summer Design Day Schedule Name
  {77187de5-fe9a-42a6-9112-90d3fd7b1864}; !- Winter Design Day Schedule Name

OS:ScheduleTypeLimits,
  {dcd08081-8ab6-4b54-b635-68fd86c5184f}, !- Handle
  Equipment Schedule Type Limits,         !- Name
  0,                                      !- Lower Limit Value {BasedOnField A4}
  1,                                      !- Upper Limit Value {BasedOnField A4}
  Continuous,                             !- Numeric Type
  Dimensionless;                          !- Unit Type

OS:Schedule:Day,
  {8a8cc23a-f2c7-44c1-bd3f-59e5dfe35cda}, !- Handle
  0600|2200|LargeHotel|GuestRoom|elec_equip |default, !- Name
  {dcd08081-8ab6-4b54-b635-68fd86c5184f}, !- Schedule Type Limits Name
  ,                                       !- Interpolate to Timestep
  6,                                      !- Hour 1
  0,                                      !- Minute 1
  0.2,                                    !- Value Until Time 1
  7,                                      !- Hour 2
  0,                                      !- Minute 2
  0.62,                                   !- Value Until Time 2
  8,                                      !- Hour 3
  0,                                      !- Minute 3
  0.9,                                    !- Value Until Time 3
  10,                                     !- Hour 4
  0,                                      !- Minute 4
  0.43,                                   !- Value Until Time 4
  17,                                     !- Hour 5
  0,                                      !- Minute 5
  0.26,                                   !- Value Until Time 5
  19,                                     !- Hour 6
  0,                                      !- Minute 6
  0.51,                                   !- Value Until Time 6
  20,                                     !- Hour 7
  0,                                      !- Minute 7
  0.49,                                   !- Value Until Time 7
  21,                                     !- Hour 8
  0,                                      !- Minute 8
  0.66,                                   !- Value Until Time 8
  22,                                     !- Hour 9