
OS:Version,
  {ddc26bbf-cde3-41e4-adae-542f8168d653}, !- Handle
  1.6.0;                                  !- Version Identifier

OS:ClimateZones,
  {135edfab-17e7-40db-a436-27d385a8cd6d}, !- Handle
  ,                                       !- Active Institution
  ,                                       !- Active Year
  ASHRAE,                                 !- Climate Zone Institution Name 1
  ANSI/ASHRAE Standard 169,               !- Climate Zone Document Name 1
  2006,                                   !- Climate Zone Document Year 1
  ,                                       !- Climate Zone Value 1
  CEC,                                    !- Climate Zone Institution Name 2
  California Climate Zone Descriptions,   !- Climate Zone Document Name 2
  1995,                                   !- Climate Zone Document Year 2
  ;                                       !- Climate Zone Value 2

OS:YearDescription,
  {513d8dda-86cb-442a-b01c-1f7f0e0ac70e}; !- Handle

OS:RadianceParameters,
  {270a96f1-3c86-4b75-a667-cdf22790e2c8}, !- Handle
  1,                                      !- Accumulated Rays per Record
  0,                                      !- Direct Threshold
  1,                                      !- Direct Certainty
  1,                                      !- Direct Jitter
  1,                                      !- Direct Pretest
  6,                                      !- Ambient Bounces VMX
  2,                                      !- Ambient Bounces DMX
  4050,                                   !- Ambient Divisions VMX
  512,                                    !- Ambient Divisions DMX
  256,                                    !- Ambient Supersamples
  0.001,                                  !- Limit Weight VMX
  0.001,                                  !- Limit Weight DMX
  500,                                    !- Klems Sampling Density
  146;                                    !- Sky Discretization Resolution

OS:SimulationControl,
  {2c487a4c-bac9-4ac5-b669-1e49d9da7c2b}, !- Handle
  ,                                       !- Do Zone Sizing Calculation
  ,                                       !- Do System Sizing Calculation
  ,                                       !- Do Plant Sizing Calculation
  No,                                     !- Run Simulation for Sizing Periods
  ,                                       !- Run Simulation for Weather File Run Periods
  0.04,                                   !- Loads Convergence Tolerance Value
  ,                                       !- Temperature Convergence Tolerance Value {deltaC}
  ,                                       !- Solar Distribution
  ,                                       !- Maximum Number of Warmup Days
  2;                                      !- Minimum Number of Warmup Days

OS:Sizing:Parameters,
  {dde5af6f-7923-4600-a28a-7556673a0266}, !- Handle
  1.25,                                   !- Heating Sizing Factor
  1.15;                                   !- Cooling Sizing Factor

OS:ProgramControl,
  {05027a99-f2b3-4aeb-afc6-1425fbb4371d}; !- Handle

OS:Timestep,
  {4ebc9f1e-4707-402e-9844-67eb1ffbd522}, !- Handle
  2;                                      !- Number of Timesteps per Hour

OS:OutputControl:ReportingTolerances,
  {65797aa2-06a9-45fe-b69d-bc6e060399d3}; !- Handle

OS:ConvergenceLimits,
  {9fc11aba-8822-4f3d-970c-46391ba4040d}; !- Handle

OS:ShadowCalculation,
  {ca758bea-4416-4626-9bba-3d8795c79bd6}, !- Handle
  7,                                      !- Calculation Frequency
  15000;                                  !- Maximum Figures in Shadow Overlap Calculations

OS:SurfaceConvectionAlgorithm:Inside,
  {aaabfc36-718a-4ab0-b622-f186ebb45230}, !- Handle
  TARP;                                   !- Algorithm

OS:SurfaceConvectionAlgorithm:Outside,
  {9a0a9f6f-4bbd-4b12-a121-9492a1fcd7d6}, !- Handle
  DOE-2;                                  !- Algorithm

OS:HeatBalanceAlgorithm,
  {9d93e563-e1e0-46d7-9e39-d1c8aceb7212}, !- Handle
  ConductionTransferFunction,             !- Algorithm
  200;                                    !- Surface Temperature Upper Limit {F}

OS:ZoneAirHeatBalanceAlgorithm,
  {8520d93e-310f-4696-9bcd-36228bfdd743}, !- Handle
  AnalyticalSolution;                     !- Algorithm

OS:ZoneAirContaminantBalance,
  {eb5fc3ae-fb22-4160-8fcb-3e3b22b000d3}; !- Handle

OS:ZoneCapacitanceMultiplier:ResearchSpecial,
  {4020ce4f-5a7a-4849-8028-8305d7b751b1}, !- Handle
  ,                                       !- Temperature Capacity Multiplier
  ,                                       !- Humidity Capacity Multiplier
  ;                                       !- Carbon Dioxide Capacity Multiplier

OS:RunPeriod,
  {28df894d-6af9-4fb8-8f56-df1753344aa3}, !- Handle
  Run Period 1,                           !- Name
  1,                                      !- Begin Month
  1,                                      !- Begin Day of Month
  12,                                     !- End Month
  31,                                     !- End Day of Month
  ,                                       !- Use Weather File Holidays and Special Days
  ,                                       !- Use Weather File Daylight Saving Period
  ,                                       !- Apply Weekend Holiday Rule
  ,                                       !- Use Weather File Rain Indicators
  ,                                       !- Use Weather File Snow Indicators
  ;                                       !- Number of Times Runperiod to be Repeated

OS:Building,
  {bf305633-c5a1-4881-9edf-ca5e1a8e1274}, !- Handle
  Building 1,                             !- Name
  ,                                       !- Building Sector Type
  ,                                       !- North Axis {deg}
  ,                                       !- Nominal Floor to Floor Height {m}
  ,                                       !- Space Type Name
  ,                                       !- Default Construction Set Name
  {fbfbb55f-fcab-4420-9340-45a3e83ca62d}, !- Default Schedule Set Name
  ,                                       !- Standards Number of Stories
  ,                                       !- Standards Number of Above Ground Stories
  LargeHotel;                             !- Standards Building Type

OS:LifeCycleCost:Parameters,
  {231cf8a0-f0e7-4251-a99f-11f0d464e661}, !- Handle
  FEMP,                                   !- Analysis Type
  ,                                       !- Discounting Convention
  ,                                       !- Inflation Approach
  ,                                       !- Real Discount Rate
  ,                                       !- Nominal Discount Rate
  ,                                       !- Inflation
  ,                                       !- Base Date Month
  ,                                       !- Base Date Year
  ,                                       !- Service Date Month
  ,                                       !- Service Date Year
  ,                                       !- Length of Study Period in Years
  ,                                       !- Tax Rate
  ,                                       !- Depreciation Method
  Yes;                                    !- Use NIST Fuel Escalation Rates

OS:Facility,
  {3ba8e45b-b833-44eb-a723-ea6c3946dc96}; !- Handle

OS:SpaceType,
  {f7db71b8-3426-4328-abb3-834b8ae7f358}, !- Handle
  LargeHotel|BlendGst|DOE Ref Pre-1980|ASHRAE 169-2006-5A, !- Name
  {796767ad-be0a-4ae7-840d-a48ccb07e574}, !- Default Construction Set Name
  ,                                       !- Default Schedule Set Name
  {13db336f-1d80-4fb8-aa7a-3e148a72f5ed}, !- Group Rendering Name
  {bb6cc354-e589-46fe-a20d-aa1667f74c17}, !- Design Specification Outdoor Air Object Name
  LargeHotel,                             !- Standards Building Type
  BlendGst;                               !- Standards Space Type

OS:Rendering:Color,
  {13db336f-1d80-4fb8-aa7a-3e148a72f5ed}, !- Handle
  Rendering Color 1,                      !- Name
  78,                                     !- Rendering Red Value
  167,                                    !- Rendering Green Value
  222;                                    !- Rendering Blue Value

OS:SpaceType,
  {32904612-596d-4b59-9211-ffe2dd174c03}, !- Handle
  LargeHotel|BlendLob|DOE Ref Pre-1980|ASHRAE 169-2006-5A, !- Name
  {796767ad-be0a-4ae7-840d-a48ccb07e574}, !- Default Construction Set Name
  ,                                       !- Default Schedule Set Name
  {639cc745-5fbf-40da-b518-1eaed91e403d}, !- Group Rendering Name
  {a8519b5a-2053-4d20-a1c6-9f43617dd4fd}, !- Design Specification Outdoor Air Object Name
  LargeHotel,                             !- Standards Building Type
  BlendLob;                               !- Standards Space Type

OS:Rendering:Color,
  {639cc745-5fbf-40da-b518-1eaed91e403d}, !- Handle
  Rendering Color 2,                      !- Name
  230,                                    !- Rendering Red Value
  157,                                    !- Rendering Green Value
  120;                                    !- Rendering Blue Value

OS:SpaceType,
  {c8b7a1e2-9e6c-46f2-a93f-885c55fd38ed}, !- Handle
  LargeHotel|BlendFds|DOE Ref Pre-1980|ASHRAE 169-2006-5A, !- Name
  {796767ad-be0a-4ae7-840d-a48ccb07e574}, !- Default Construction Set Name
  ,                                       !- Default Schedule Set Name
  {8666ecfc-18b8-4347-9c35-5a08a0e8e466}, !- Group Rendering Name
  {bd55742d-acc0-4cef-868f-dd511ec791e8}, !- Design Specification Outdoor Air Object Name
  LargeHotel,                             !- Standards Building Type
  BlendFds;                               !- Standards Space Type

OS:Rendering:Color,
  {8666ecfc-18b8-4347-9c35-5a08a0e8e466}, !- Handle
  Rendering Color 3,                      !- Name
  230,                                    !- Rendering Red Value
  196,                                    !- Rendering Green Value
  120;                                    !- Rendering Blue Value

OS:SpaceType,
  {419fb6eb-a3a3-4856-9366-7499d694b103}, !- Handle
  LargeHotel|BlendMisc|DOE Ref Pre-1980|ASHRAE 169-2006-5A, !- Name
  {796767ad-be0a-4ae7-840d-a48ccb07e574}, !- Default Construction Set Name
  ,                                       !- Default Schedule Set Name
  {7ad3901e-90c5-472e-8847-87bbd539c5ff}, !- Group Rendering Name
  {60d6144f-75c2-4b88-8e84-cc4c1fa7c27e}, !- Design Specification Outdoor Air Object Name
  LargeHotel,                             !- Standards Building Type
  BlendMisc;                              !- Standards Space Type

OS:Rendering:Color,
  {7ad3901e-90c5-472e-8847-87bbd539c5ff}, !- Handle
  Rendering Color 4,                      !- Name
  41,                                     !- Rendering Red Value
  31,                                     !- Rendering Green Value
  169;                                    !- Rendering Blue Value

OS:SpaceType,
  {bdc32664-a2a1-44b4-a6b6-e9f5ad28b7af}, !- Handle
  LargeHotel|Kitchen|DOE Ref Pre-1980|ASHRAE 169-2006-5A, !- Name
  {796767ad-be0a-4ae7-840d-a48ccb07e574}, !- Default Construction Set Name
  {cb6ee77e-8bdd-4045-8451-618cf5ff11ce}, !- Default Schedule Set Name
  {1381de31-14ef-40a6-a00e-2f3a426f44e8}, !- Group Rendering Name
  {36f4d4b0-681c-4e83-9145-8cbab1928623}, !- Design Specification Outdoor Air Object Name
  LargeHotel,                             !- Standards Building Type
  Kitchen;                                !- Standards Space Type

OS:Rendering:Color,
  {1381de31-14ef-40a6-a00e-2f3a426f44e8}, !- Handle
  Rendering Color 5,                      !- Name
  78,                                     !- Rendering Red Value
  222,                                    !- Rendering Green Value
  133;                                    !- Rendering Blue Value

OS:SpaceType,
  {d344e4db-9a12-46f1-a423-f04844a26872}, !- Handle
  LargeHotel|Laundry|DOE Ref Pre-1980|ASHRAE 169-2006-5A, !- Name
  {796767ad-be0a-4ae7-840d-a48ccb07e574}, !- Default Construction Set Name
  {2c91d6bc-5503-408c-b045-af5490ee14a9}, !- Default Schedule Set Name
  {7f59a2b6-144a-4069-9191-8b3ecf09a49c}, !- Group Rendering Name
  {648aecc4-63a5-48bb-8f29-597ff8d7eb88}, !- Design Specification Outdoor Air Object Name
  LargeHotel,                             !- Standards Building Type
  Laundry;                                !- Standards Space Type

OS:Rendering:Color,
  {7f59a2b6-144a-4069-9191-8b3ecf09a49c}, !- Handle
  Rendering Color 6,                      !- Name
  120,                                    !- Rendering Red Value
  149,                                    !- Rendering Green Value
  230;                                    !- Rendering Blue Value

OS:Schedule:Ruleset,
  {c1eb1fc5-bec4-4101-b804-d99b97ee31a5}, !- Handle
  0600|2200|LargeHotel|default|hoo,       !- Name
  {6c0abfcc-cc46-4e78-9eca-59a141d6ae79}, !- Schedule Type Limits Name
  {ba8f7155-23c8-4e41-b692-6884a278cfcc}, !- Default Day Schedule Name
  {dad8bf9a-e907-46e9-b1e8-42e49c905ca4}, !- Summer Design Day Schedule Name
  {7baec893-f5d4-4c22-8e5e-2d2fe4c346b7}; !- Winter Design Day Schedule Name

OS:Schedule:Day,
  {ba8f7155-23c8-4e41-b692-6884a278cfcc}, !- Handle
  0600|2200|LargeHotel|default|hoo Schedule Week Day, !- Name
  {6c0abfcc-cc46-4e78-9eca-59a141d6ae79}, !- Schedule Type Limits Name
  ,                                       !- Interpolate to Timestep
  6,                                      !- Hour 1
  0,                                      !- Minute 1
  0,                                      !- Value Until Time 1
  22,                                     !- Hour 2
  0,                                      !- Minute 2
  1,                                      !- Value Until Time 2
  24,                                     !- Hour 3
  0,                                      !- Minute 3
  0;                                      !- Value Until Time 3

OS:Schedule:Day,
  {76672978-195b-4bd5-84b1-66157b51c558}, !- Handle
  Schedule Day 2,                         !- Name
  ,                                       !- Schedule Type Limits Name
  ,                                       !- Interpolate to Timestep
  24,                                     !- Hour 1
  0,                                      !- Minute 1
  0;                                      !- Value Until Time 1

OS:Schedule:Day,
  {7baec893-f5d4-4c22-8e5e-2d2fe4c346b7}, !- Handle
  0600|2200|LargeHotel|default|hoo Winter Design Day, !- Name
  {6c0abfcc-cc46-4e78-9eca-59a141d6ae79}, !- Schedule Type Limits Name
  ,                                       !- Interpolate to Timestep
  24,                                     !- Hour 1
  0,                                      !- Minute 1
  0;                                      !- Value Until Time 1

OS:Schedule:Day,
  {b7b98228-3715-4d22-8486-197e70e198bf}, !- Handle
  Schedule Day 3,                         !- Name
  ,                                       !- Schedule Type Limits Name
  ,                                       !- Interpolate to Timestep
  24,                                     !- Hour 1
  0,                                      !- Minute 1
  0;                                      !- Value Until Time 1

OS:Schedule:Day,
  {dad8bf9a-e907-46e9-b1e8-42e49c905ca4}, !- Handle
  0600|2200|LargeHotel|default|hoo Summer Design Day, !- Name
  {6c0abfcc-cc46-4e78-9eca-59a141d6ae79}, !- Schedule Type Limits Name
  ,                                       !- Interpolate to Timestep
  24,                                     !- Hour 1
  0,                                      !- Minute 1
  1;                                      !- Value Until Time 1

OS:DefaultScheduleSet,
  {fbfbb55f-fcab-4420-9340-45a3e83ca62d}, !- Handle
  Building Hours of Operation,            !- Name
  {c1eb1fc5-bec4-4101-b804-d99b97ee31a5}, !- Hours of Operation Schedule Name
  ,                                       !- Number of People Schedule Name
  ,                                       !- People Activity Level Schedule Name
  ,                                       !- Lighting Schedule Name
  ,                                       !- Electric Equipment Schedule Name
  ,                                       !- Gas Equipment Schedule Name
  ,                                       !- Hot Water Equipment Schedule Name
  ,                                       !- Infiltration Schedule Name
  ,                                       !- Steam Equipment Schedule Name
  ;                                       !- Other Equipment Schedule Name

OS:ScheduleTypeLimits,
  {6c0abfcc-cc46-4e78-9eca-59a141d6ae79}, !- Handle
  OnOff,                                  !- Name
  0,                                      !- Lower Limit Value {BasedOnField A4}
  1,                                      !- Upper Limit Value {BasedOnField A4}
  Discrete,                               !- Numeric Type
  Availability;                           !- Unit Type

OS:Schedule:Ruleset,
  {7b576608-4f0d-42a5-b8f3-d99408b93c11}, !- Handle
  0600|2200|LargeHotel|default|clothing,  !- Name
  {27c9a54b-b698-48ab-9d87-82b06041b2cb}, !- Schedule Type Limits Name
  {0d2f7141-a858-4913-b131-27f31b80b7ed}, !- Default Day Schedule Name
  {d81acb84-901f-4852-bba4-077dec97ef0c}, !- Summer Design Day Schedule Name
  {80f961ce-ef9b-4f15-8dc3-b6b6caa94014}; !- Winter Design Day Schedule Name

OS:ScheduleTypeLimits,
  {27c9a54b-b698-48ab-9d87-82b06041b2cb}, !- Handle
  Dimensionless Schedule Type Limits,     !- Name
  ,                                       !- Lower Limit Value {BasedOnField A4}
  ,                                       !- Upper Limit Value {BasedOnField A4}
  Continuous,                             !- Numeric Type
  Dimensionless;                          !- Unit Type

OS:Schedule:Day,
  {0d2f7141-a858-4913-b131-27f31b80b7ed}, !- Handle
  0600|2200|LargeHotel|default|clothing |default, !- Name
  {27c9a54b-b698-48ab-9d87-82b06041b2cb}, !- Schedule Type Limits Name
  ,                                       !- Interpolate to Timestep
  24,                                     !- Hour 1
  0,                                      !- Minute 1
  1;                                      !- Value Until Time 1

OS:Schedule:Day,
  {d81acb84-901f-4852-bba4-077dec97ef0c}, !- Handle
  0600|2200|LargeHotel|default|clothing Summer Design Day, !- Name
  {27c9a54b-b698-48ab-9d87-82b06041b2cb}, !- Schedule Type Limits Name
  ,                                       !- Interpolate to Timestep
  24,                                     !- Hour 1
  0,                                      !- Minute 1
  1;                                      !- Value Until Time 1

OS:Schedule:Day,
  {80f961ce-ef9b-4f15-8dc3-b6b6caa94014}, !- Handle
  0600|2200|LargeHotel|default|clothing Winter Design Day, !- Name
  {27c9a54b-b698-48ab-9d87-82b06041b2cb}, !- Schedule Type Limits Name
  ,                                       !- Interpolate to Timestep
  24,                                     !- Hour 1
  0,                                      !- Minute 1
  1;                                      !- Value Until Time 1

OS:Schedule:Rule,
  {5528680d-f883-4122-985c-22877fd53dde}, !- Handle
  0600|2200|LargeHotel|default|clothing |5/1-9/30|Mon/Tue/Wed/Thu/Fri/Sat/Sun Rule, !- Name
  {7b576608-4f0d-42a5-b8f3-d99408b93c11}, !- Schedule Ruleset Name
  0,                                      !- Rule Order
  {b3e7f952-8b54-485c-b90e-17becd25f68c}, !- Day Schedule Name
  Yes,                                    !- Apply Sunday
  Yes,                                    !- Apply Monday
  Yes,                                    !- Apply Tuesday
  Yes,                                    !- Apply Wednesday
  Yes,                                    !- Apply Thursday
  Yes,                                    !- Apply Friday
  Yes,                                    !- Apply Saturday
  ,                                       !- Apply Holiday
  DateRange,                              !- Date Specification Type
  5,                                      !- Start Month
  1,                                      !- Start Day
  9,                                      !- End Month
  30;                                     !- End Day

OS:Schedule:Day,
  {b3e7f952-8b54-485c-b90e-17becd25f68c}, !- Handle
  0600|2200|LargeHotel|default|clothing |5/1-9/30|Mon/Tue/Wed/Thu/Fri/Sat/Sun, !- Name
  {27c9a54b-b698-48ab-9d87-82b06041b2cb}, !- Schedule Type Limits Name
  ,                                       !- Interpolate to Timestep
  24,                                     !- Hour 1
  0,                                      !- Minute 1
  0.5;                                    !- Value Until Time 1

OS:Schedule:Rule,
  {696a1db1-1565-430f-a1c6-0f562420464b}, !- Handle
  0600|2200|LargeHotel|default|clothing |10/1-12/31|Mon/Tue/Wed/Thu/Fri/Sat/Sun Rule, !- Name
  {7b576608-4f0d-42a5-b8f3-d99408b93c11}, !- Schedule Ruleset Name
  1,                                      !- Rule Order
  {4f35026c-a889-4206-86a7-ba7e6d296bee}, !- Day Schedule Name
  Yes,                                    !- Apply Sunday
  Yes,                                    !- Apply Monday
  Yes,                                    !- Apply Tuesday
  Yes,                                    !- Apply Wednesday
  Yes,                                    !- Apply Thursday
  Yes,                                    !- Apply Friday
  Yes,                                    !- Apply Saturday
  ,                                       !- Apply Holiday
  DateRange,                              !- Date Specification Type
  10,                                     !- Start Month
  1,                                      !- Start Day
  12,                                     !- End Month
  31;                                     !- End Day

OS:Schedule:Day,
  {4f35026c-a889-4206-86a7-ba7e6d296bee}, !- Handle
  0600|2200|LargeHotel|default|clothing |10/1-12/31|Mon/Tue/Wed/Thu/Fri/Sat/Sun, !- Name
  {27c9a54b-b698-48ab-9d87-82b06041b2cb}, !- Schedule Type Limits Name
  ,                                       !- Interpolate to Timestep
  24,                                     !- Hour 1
  0,                                      !- Minute 1
  1;                                      !- Value Until Time 1

OS:Schedule:Ruleset,
  {eb8c3115-12a4-4493-a3d6-ca6113032176}, !- Handle
  0600|2200|LargeHotel|default|ext_lighting, !- Name
  {ce20333c-5660-4bc6-b943-895cae847d0d}, !- Schedule Type Limits Name
  {072df6d9-f8d1-455a-a699-0b474968f008}, !- Default Day Schedule Name
  {87e03e3a-2ecc-463d-a706-395c5498ffe1}, !- Summer Design Day Schedule Name
  {65dc3f67-b46b-4035-8863-721f28d7914c}; !- Winter Design Day Schedule Name

OS:ScheduleTypeLimits,
  {ce20333c-5660-4bc6-b943-895cae847d0d}, !- Handle
  Lights Schedule Type Limits,            !- Name
  0,                                      !- Lower Limit Value {BasedOnField A4}
  1,                                      !- Upper Limit Value {BasedOnField A4}
  Continuous,                             !- Numeric Type
  Dimensionless;                          !- Unit Type

OS:Schedule:Day,
  {072df6d9-f8d1-455a-a699-0b474968f008}, !- Handle
  0600|2200|LargeHotel|default|ext_lighting |default, !- Name
  {ce20333c-5660-4bc6-b943-895cae847d0d}, !- Schedule Type Limits Name
  ,                                       !- Interpolate to Timestep
  24,                                     !- Hour 1
  0,                                      !- Minute 1
  1;                                      !- Value Until Time 1

OS:Schedule:Day,
  {87e03e3a-2ecc-463d-a706-395c5498ffe1}, !- Handle
  0600|2200|LargeHotel|default|ext_lighting Summer Design Day, !- Name
  {ce20333c-5660-4bc6-b943-895cae847d0d}, !- Schedule Type Limits Name
  ,                                       !- Interpolate to Timestep
  24,                                     !- Hour 1
  0,                                      !- Minute 1
  1;                                      !- Value Until Time 1

OS:Schedule:Day,
  {65dc3f67-b46b-4035-8863-721f28d7914c}, !- Handle
  0600|2200|LargeHotel|default|ext_lighting Winter Design Day, !- Name
  {ce20333c-5660-4bc6-b943-895cae847d0d}, !- Schedule Type Limits Name
  ,                                       !- Interpolate to Timestep
  24,                                     !- Hour 1
  0,                                      !- Minute 1
  1;                                      !- Value Until Time 1

OS:Schedule:Ruleset,
  {7ddd2b2e-3fa2-4d8a-9e99-60d7932d7cb8}, !- Handle
  0600|2200|LargeHotel|GuestRoom|occ,     !- Name
  {58aca460-64aa-4bdc-994f-f812611992ce}, !- Schedule Type Limits Name
  {186b7f8a-53b5-475b-b194-c1636f0e61b4}, !- Default Day Schedule Name
  {cb433096-884f-4b52-af5c-cb8fb998517a}, !- Summer Design Day Schedule Name
  {af79c941-86f2-45d8-b5b2-e3f5968bc9b6}; !- Winter Design Day Schedule Name

OS:ScheduleTypeLimits,
  {58aca460-64aa-4bdc-994f-f812611992ce}, !- Handle
  Occupancy Schedule Type Limits,         !- Name
  0,                                      !- Lower Limit Value {BasedOnField A4}
  1,                                      !- Upper Limit Value {BasedOnField A4}
  Continuous,                             !- Numeric Type
  Dimensionless;                          !- Unit Type

OS:Schedule:Day,
  {186b7f8a-53b5-475b-b194-c1636f0e61b4}, !- Handle
  0600|2200|LargeHotel|GuestRoom|occ |default, !- Name
  {58aca460-64aa-4bdc-994f-f812611992ce}, !- Schedule Type Limits Name
  ,                                       !- Interpolate to Timestep
  6,                                      !- Hour 1
  0,                                      !- Minute 1
  0.65,                                   !- Value Until Time 1
  7,                                      !- Hour 2
  0,                                      !- Minute 2
  0.5,                                    !- Value Until Time 2
  9,                                      !- Hour 3
  0,                                      !- Minute 3
  0.28,                                   !- Value Until Time 3
  15,                                     !- Hour 4
  0,                                      !- Minute 4
  0.13,                                   !- Value Until Time 4
  16,                                     !- Hour 5
  0,                                      !- Minute 5
  0.2,                                    !- Value Until Time 5
  19,                                     !- Hour 6
  0,                                      !- Minute 6
  0.35,                                   !- Value Until Time 6
  21,                                     !- Hour 7
  0,                                      !- Minute 7
  0.5,                                    !- Value Until Time 7
  22,                                     !- Hour 8
  0,                                      !- Minute 8
  0.58,                                   !- Value Until Time 8
  24,                                     !- Hour 9
  0,                                      !- Minute 9
  0.65;                                   !- Value Until Time 9

OS:Schedule:Day,
  {cb433096-884f-4b52-af5c-cb8fb998517a}, !- Handle
  0600|2200|LargeHotel|GuestRoom|occ Summer Design Day, !- Name
  {58aca460-64aa-4bdc-994f-f812611992ce}, !- Schedule Type Limits Name
  ,                                       !- Interpolate to Timestep
  7,                                      !- Hour 1
  0,                                      !- Minute 1
  1,                                      !- Value Until Time 1
  9,                                      !- Hour 2
  0,                                      !- Minute 2
  0.28,                                   !- Value Until Time 2
  15,                                     !- Hour 3
  0,                                      !- Minute 3
  0.13,                                   !- Value Until Time 3
  16,                                     !- Hour 4
  0,                                      !- Minute 4
  0.2,                                    !- Value Until Time 4
  24,                                     !- Hour 5
  0,                                      !- Minute 5
  1;                                      !- Value Until Time 5

OS:Schedule:Day,
  {af79c941-86f2-45d8-b5b2-e3f5968bc9b6}, !- Handle
  0600|2200|LargeHotel|GuestRoom|occ Winter Design Day, !- Name
  {58aca460-64aa-4bdc-994f-f812611992ce}, !- Schedule Type Limits Name
  ,                                       !- Interpolate to Timestep
  24,                                     !- Hour 1
  0,                                      !- Minute 1
  0;                                      !- Value Until Time 1

OS:Schedule:Rule,
  {3d0e0ba0-5992-4a81-8a6b-6346c6fcc828}, !- Handle
  0600|2200|LargeHotel|GuestRoom|occ |1/1-12/31|Sat/Sun Rule, !- Name
  {7ddd2b2e-3fa2-4d8a-9e99-60d7932d7cb8}, !- Schedule Ruleset Name
  0,                                      !- Rule Order
  {07cdb158-1dcf-49f2-9523-3e004c31f1d5}, !- Day Schedule Name
  Yes,                                    !- Apply Sunday
  ,                                       !- Apply Monday
  ,                                       !- Apply Tuesday
  ,                                       !- Apply Wednesday
  ,                                       !- Apply Thursday
  ,                                       !- Apply Friday
  Yes,                                    !- Apply Saturday
  ,                                       !- Apply Holiday
  DateRange,                              !- Date Specification Type
  1,                                      !- Start Month
  1,                                      !- Start Day
  12,                                     !- End Month
  31;                                     !- End Day

OS:Schedule:Day,
  {07cdb158-1dcf-49f2-9523-3e004c31f1d5}, !- Handle
  0600|2200|LargeHotel|GuestRoom|occ |1/1-12/31|Sat/Sun, !- Name
  {58aca460-64aa-4bdc-994f-f812611992ce}, !- Schedule Type Limits Name
  ,                                       !- Interpolate to Timestep
  6,                                      !- Hour 1