
OS:Version,
  {d8e28212-ea74-4d2e-8faf-6f26ab35ddec}, !- Handle
  1.6.0;                                  !- Version Identifier

OS:ClimateZones,
  {135edfab-17e7-40db-a436-27d385a8cd6d}, !- Handle
  ,                                       !- Active Institution
  ,                                       !- Active Year
  ASHRAE,                                 !- Climate Zone Institution Name 1
  ANSI/ASHRAE Standard 169,               !- Climate Zone Document Name 1
  2006,                                   !- Climate Zone Document Year 1
  ,                                       !- Climate Zone Value 1
  CEC,                                    !- Climate Zone Institution Name 2
  California Climate Zone Descriptions,   !- Climate Zone Document Name 2
  1995,                                   !- Climate Zone Document Year 2
  ;                                       !- Climate Zone Value 2

OS:YearDescription,
  {513d8dda-86cb-442a-b01c-1f7f0e0ac70e}; !- Handle

OS:RadianceParameters,
  {270a96f1-3c86-4b75-a667-cdf22790e2c8}, !- Handle
  1,                                      !- Accumulated Rays per Record
  0,                                      !- Direct Threshold
  1,                                      !- Direct Certainty
  1,                                      !- Direct Jitter
  1,                                      !- Direct Pretest
  6,                                      !- Ambient Bounces VMX
  2,                                      !- Ambient Bounces DMX
  4050,                                   !- Ambient Divisions VMX
  512,                                    !- Ambient Divisions DMX
  256,                                    !- Ambient Supersamples
  0.001,                                  !- Limit Weight VMX
  0.001,                                  !- Limit Weight DMX
  500,                                    !- Klems Sampling Density
  146;                                    !- Sky Discretization Resolution

OS:SimulationControl,
  {2c487a4c-bac9-4ac5-b669-1e49d9da7c2b}, !- Handle
  ,                                       !- Do Zone Sizing Calculation
  ,                                       !- Do System Sizing Calculation
  ,                                       !- Do Plant Sizing Calculation
  No,                                     !- Run Simulation for Sizing Periods
  ,                                       !- Run Simulation for Weather File Run Periods
  0.04,                                   !- Loads Convergence Tolerance Value
  ,                                       !- Temperature Convergence Tolerance Value {deltaC}
  ,                                       !- Solar Distribution
  ,                                       !- Maximum Number of Warmup Days
  2;                                      !- Minimum Number of Warmup Days

OS:Sizing:Parameters,
  {dde5af6f-7923-4600-a28a-7556673a0266}, !- Handle
  1.25,                                   !- Heating Sizing Factor
  1.15;                                   !- Cooling Sizing Factor

OS:ProgramControl,
  {05027a99-f2b3-4aeb-afc6-1425fbb4371d}; !- Handle

OS:Timestep,
  {4ebc9f1e-4707-402e-9844-67eb1ffbd522}, !- Handle
  2;                                      !- Number of Timesteps per Hour

OS:OutputControl:ReportingTolerances,
  {65797aa2-06a9-45fe-b69d-bc6e060399d3}; !- Handle

OS:ConvergenceLimits,
  {9fc11aba-8822-4f3d-970c-46391ba4040d}; !- Handle

OS:ShadowCalculation,
  {ca758bea-4416-4626-9bba-3d8795c79bd6}, !- Handle
  7,                                      !- Calculation Frequency
  15000;                                  !- Maximum Figures in Shadow Overlap Calculations

OS:SurfaceConvectionAlgorithm:Inside,
  {aaabfc36-718a-4ab0-b622-f186ebb45230}, !- Handle
  TARP;                                   !- Algorithm

OS:SurfaceConvectionAlgorithm:Outside,
  {9a0a9f6f-4bbd-4b12-a121-9492a1fcd7d6}, !- Handle
  DOE-2;                                  !- Algorithm

OS:HeatBalanceAlgorithm,
  {9d93e563-e1e0-46d7-9e39-d1c8aceb7212}, !- Handle
  ConductionTransferFunction,             !- Algorithm
  200;                                    !- Surface Temperature Upper Limit {F}

OS:ZoneAirHeatBalanceAlgorithm,
  {8520d93e-310f-4696-9bcd-36228bfdd743}, !- Handle
  AnalyticalSolution;                     !- Algorithm

OS:ZoneAirContaminantBalance,
  {eb5fc3ae-fb22-4160-8fcb-3e3b22b000d3}; !- Handle

OS:ZoneCapacitanceMultiplier:ResearchSpecial,
  {4020ce4f-5a7a-4849-8028-8305d7b751b1}, !- Handle
  ,                                       !- Temperature Capacity Multiplier
  ,                                       !- Humidity Capacity Multiplier
  ;                                       !- Carbon Dioxide Capacity Multiplier

OS:RunPeriod,
  {28df894d-6af9-4fb8-8f56-df1753344aa3}, !- Handle
  Run Period 1,                           !- Name
  1,                                      !- Begin Month
  1,                                      !- Begin Day of Month
  12,                                     !- End Month
  31,                                     !- End Day of Month
  ,                                       !- Use Weather File Holidays and Special Days
  ,                                       !- Use Weather File Daylight Saving Period
  ,                                       !- Apply Weekend Holiday Rule
  ,                                       !- Use Weather File Rain Indicators
  ,                                       !- Use Weather File Snow Indicators
  ;                                       !- Number of Times Runperiod to be Repeated

OS:Building,
  {bf305633-c5a1-4881-9edf-ca5e1a8e1274}, !- Handle
  Building 1,                             !- Name
  ,                                       !- Building Sector Type
  ,                                       !- North Axis {deg}
  ,                                       !- Nominal Floor to Floor Height {m}
  ,                                       !- Space Type Name
  ,                                       !- Default Construction Set Name
  {7957eeca-0d13-4c19-801e-b0e74746fcc9}, !- Default Schedule Set Name
  ,                                       !- Standards Number of Stories
  ,                                       !- Standards Number of Above Ground Stories
  LargeHotel;                             !- Standards Building Type

OS:LifeCycleCost:Parameters,
  {231cf8a0-f0e7-4251-a99f-11f0d464e661}, !- Handle
  FEMP,                                   !- Analysis Type
  ,                                       !- Discounting Convention
  ,                                       !- Inflation Approach
  ,                                       !- Real Discount Rate
  ,                                       !- Nominal Discount Rate
  ,                                       !- Inflation
  ,                                       !- Base Date Month
  ,                                       !- Base Date Year
  ,                                       !- Service Date Month
  ,                                       !- Service Date Year
  ,                                       !- Length of Study Period in Years
  ,                                       !- Tax Rate
  ,                                       !- Depreciation Method
  Yes;                                    !- Use NIST Fuel Escalation Rates

OS:Facility,
  {3ba8e45b-b833-44eb-a723-ea6c3946dc96}; !- Handle

OS:SpaceType,
  {7bdf02b6-d776-472e-ae7a-ee192c4b784e}, !- Handle
  LargeHotel|BlendGst|DOE Ref 1980-2004|ASHRAE 169-2006-5A, !- Name
  {2c065192-106e-44e2-9fe1-d3ae78487144}, !- Default Construction Set Name
  ,                                       !- Default Schedule Set Name
  {4596bb3b-efcb-4f60-9726-2b04a9a3fce1}, !- Group Rendering Name
  {9ab48769-9cff-4c53-9753-d3047b2628d9}, !- Design Specification Outdoor Air Object Name
  LargeHotel,                             !- Standards Building Type
  BlendGst;                               !- Standards Space Type

OS:Rendering:Color,
  {4596bb3b-efcb-4f60-9726-2b04a9a3fce1}, !- Handle
  Rendering Color 1,                      !- Name
  78,                                     !- Rendering Red Value
  167,                                    !- Rendering Green Value
  222;                                    !- Rendering Blue Value

OS:SpaceType,
  {d8b8a44f-3994-4d4f-8af9-f64566f39d26}, !- Handle
  LargeHotel|BlendLob|DOE Ref 1980-2004|ASHRAE 169-2006-5A, !- Name
  {2c065192-106e-44e2-9fe1-d3ae78487144}, !- Default Construction Set Name
  ,                                       !- Default Schedule Set Name
  {f4857c14-2d17-478c-98dd-6609040ca4b4}, !- Group Rendering Name
  {530ff2a6-327f-489d-a31c-cb1eaf05afd5}, !- Design Specification Outdoor Air Object Name
  LargeHotel,                             !- Standards Building Type
  BlendLob;                               !- Standards Space Type

OS:Rendering:Color,
  {f4857c14-2d17-478c-98dd-6609040ca4b4}, !- Handle
  Rendering Color 2,                      !- Name
  230,                                    !- Rendering Red Value
  157,                                    !- Rendering Green Value
  120;                                    !- Rendering Blue Value

OS:SpaceType,
  {cc19971f-7c82-4d2c-a8f6-d62e0c6202bc}, !- Handle
  LargeHotel|BlendFds|DOE Ref 1980-2004|ASHRAE 169-2006-5A, !- Name
  {2c065192-106e-44e2-9fe1-d3ae78487144}, !- Default Construction Set Name
  ,                                       !- Default Schedule Set Name
  {bb84cb2d-60bd-4ad9-bc0c-f9cefbbb5d94}, !- Group Rendering Name
  {12732fab-018f-4cd6-b711-b80097f827fc}, !- Design Specification Outdoor Air Object Name
  LargeHotel,                             !- Standards Building Type
  BlendFds;                               !- Standards Space Type

OS:Rendering:Color,
  {bb84cb2d-60bd-4ad9-bc0c-f9cefbbb5d94}, !- Handle
  Rendering Color 3,                      !- Name
  230,                                    !- Rendering Red Value
  196,                                    !- Rendering Green Value
  120;                                    !- Rendering Blue Value

OS:SpaceType,
  {77556cc4-6921-4559-aaa5-ff584b62720b}, !- Handle
  LargeHotel|BlendMisc|DOE Ref 1980-2004|ASHRAE 169-2006-5A, !- Name
  {2c065192-106e-44e2-9fe1-d3ae78487144}, !- Default Construction Set Name
  ,                                       !- Default Schedule Set Name
  {5e8d9821-be54-40c6-9824-ffa025da7efc}, !- Group Rendering Name
  {f30e401e-668d-4d1b-8aa4-fb9f902fa6b0}, !- Design Specification Outdoor Air Object Name
  LargeHotel,                             !- Standards Building Type
  BlendMisc;                              !- Standards Space Type

OS:Rendering:Color,
  {5e8d9821-be54-40c6-9824-ffa025da7efc}, !- Handle
  Rendering Color 4,                      !- Name
  41,                                     !- Rendering Red Value
  31,                                     !- Rendering Green Value
  169;                                    !- Rendering Blue Value

OS:SpaceType,
  {1295828a-94c9-4ff3-80f5-4609440abe78}, !- Handle
  LargeHotel|Kitchen|DOE Ref 1980-2004|ASHRAE 169-2006-5A, !- Name
  {2c065192-106e-44e2-9fe1-d3ae78487144}, !- Default Construction Set Name
  {8b457919-f261-48e6-8cb2-036dca652abc}, !- Default Schedule Set Name
  {db77c579-1ce4-4756-b73d-cb4a74ba1f48}, !- Group Rendering Name
  {e474ba16-8ab4-4412-869b-cafd765b3457}, !- Design Specification Outdoor Air Object Name
  LargeHotel,                             !- Standards Building Type
  Kitchen;                                !- Standards Space Type

OS:Rendering:Color,
  {db77c579-1ce4-4756-b73d-cb4a74ba1f48}, !- Handle
  Rendering Color 5,                      !- Name
  78,                                     !- Rendering Red Value
  222,                                    !- Rendering Green Value
  133;                                    !- Rendering Blue Value

OS:SpaceType,
  {e739435b-5247-425a-a7e4-042f3e7103d7}, !- Handle
  LargeHotel|Laundry|DOE Ref 1980-2004|ASHRAE 169-2006-5A, !- Name
  {2c065192-106e-44e2-9fe1-d3ae78487144}, !- Default Construction Set Name
  {7a83c3bb-616c-4912-a8a0-2595d71b75bb}, !- Default Schedule Set Name
  {6595a2f5-eb9d-4744-b67f-246b7316709d}, !- Group Rendering Name
  {32383783-1d6d-44ee-b42a-d30cf977500e}, !- Design Specification Outdoor Air Object Name
  LargeHotel,                             !- Standards Building Type
  Laundry;                                !- Standards Space Type

OS:Rendering:Color,
  {6595a2f5-eb9d-4744-b67f-246b7316709d}, !- Handle
  Rendering Color 6,                      !- Name
  120,                                    !- Rendering Red Value
  149,                                    !- Rendering Green Value
  230;                                    !- Rendering Blue Value

OS:Schedule:Ruleset,
  {37e30db1-7b41-45dd-a480-88fdde4bbb6a}, !- Handle
  0600|2200|LargeHotel|default|hoo,       !- Name
  {2b54a589-095c-4a3f-9ff2-fcf7cafd35f2}, !- Schedule Type Limits Name
  {eb09d6b1-08c6-492b-b9e1-d961f4939c65}, !- Default Day Schedule Name
  {7bec55a9-7e92-456e-a646-a5a42fbbe4fe}, !- Summer Design Day Schedule Name
  {ff1b7781-7ef0-4ba5-ac81-55575a50b413}; !- Winter Design Day Schedule Name

OS:Schedule:Day,
  {eb09d6b1-08c6-492b-b9e1-d961f4939c65}, !- Handle
  0600|2200|LargeHotel|default|hoo Schedule Week Day, !- Name
  {2b54a589-095c-4a3f-9ff2-fcf7cafd35f2}, !- Schedule Type Limits Name
  ,                                       !- Interpolate to Timestep
  6,                                      !- Hour 1
  0,                                      !- Minute 1
  0,                                      !- Value Until Time 1
  22,                                     !- Hour 2
  0,                                      !- Minute 2
  1,                                      !- Value Until Time 2
  24,                                     !- Hour 3
  0,                                      !- Minute 3
  0;                                      !- Value Until Time 3

OS:Schedule:Day,
  {13717cb9-a9e3-4e21-b1cf-5aa9913fe345}, !- Handle
  Schedule Day 2,                         !- Name
  ,                                       !- Schedule Type Limits Name
  ,                                       !- Interpolate to Timestep
  24,                                     !- Hour 1
  0,                                      !- Minute 1
  0;                                      !- Value Until Time 1

OS:Schedule:Day,
  {ff1b7781-7ef0-4ba5-ac81-55575a50b413}, !- Handle
  0600|2200|LargeHotel|default|hoo Winter Design Day, !- Name
  {2b54a589-095c-4a3f-9ff2-fcf7cafd35f2}, !- Schedule Type Limits Name
  ,                                       !- Interpolate to Timestep
  24,                                     !- Hour 1
  0,                                      !- Minute 1
  0;                                      !- Value Until Time 1

OS:Schedule:Day,
  {0e4e5f50-de56-446c-864e-0860fa693663}, !- Handle
  Schedule Day 3,                         !- Name
  ,                                       !- Schedule Type Limits Name
  ,                                       !- Interpolate to Timestep
  24,                                     !- Hour 1
  0,                                      !- Minute 1
  0;                                      !- Value Until Time 1

OS:Schedule:Day,
  {7bec55a9-7e92-456e-a646-a5a42fbbe4fe}, !- Handle
  0600|2200|LargeHotel|default|hoo Summer Design Day, !- Name
  {2b54a589-095c-4a3f-9ff2-fcf7cafd35f2}, !- Schedule Type Limits Name
  ,                                       !- Interpolate to Timestep
  24,                                     !- Hour 1
  0,                                      !- Minute 1
  1;                                      !- Value Until Time 1

OS:DefaultScheduleSet,
  {7957eeca-0d13-4c19-801e-b0e74746fcc9}, !- Handle
  Building Hours of Operation,            !- Name
  {37e30db1-7b41-45dd-a480-88fdde4bbb6a}, !- Hours of Operation Schedule Name
  ,                                       !- Number of People Schedule Name
  ,                                       !- People Activity Level Schedule Name
  ,                                       !- Lighting Schedule Name
  ,                                       !- Electric Equipment Schedule Name
  ,                                       !- Gas Equipment Schedule Name
  ,                                       !- Hot Water Equipment Schedule Name
  ,                                       !- Infiltration Schedule Name
  ,                                       !- Steam Equipment Schedule Name
  ;                                       !- Other Equipment Schedule Name

OS:ScheduleTypeLimits,
  {2b54a589-095c-4a3f-9ff2-fcf7cafd35f2}, !- Handle
  OnOff,                                  !- Name
  0,                                      !- Lower Limit Value {BasedOnField A4}
  1,                                      !- Upper Limit Value {BasedOnField A4}
  Discrete,                               !- Numeric Type
  Availability;                           !- Unit Type

OS:Schedule:Ruleset,
  {097fb3ef-c9e8-425c-8b50-89b79ccf1456}, !- Handle
  0600|2200|LargeHotel|default|clothing,  !- Name
  {052ec04b-c27f-4e04-9e73-aa993d85ba68}, !- Schedule Type Limits Name
  {e1bb7714-f082-49c6-a56d-e5a25c71e321}, !- Default Day Schedule Name
  {7cbcfa36-8c87-48c4-8d67-99c2d050f54a}, !- Summer Design Day Schedule Name
  {8e66cec4-21b7-432e-8dd6-301f87576544}; !- Winter Design Day Schedule Name

OS:ScheduleTypeLimits,
  {052ec04b-c27f-4e04-9e73-aa993d85ba68}, !- Handle
  Dimensionless Schedule Type Limits,     !- Name
  ,                                       !- Lower Limit Value {BasedOnField A4}
  ,                                       !- Upper Limit Value {BasedOnField A4}
  Continuous,                             !- Numeric Type
  Dimensionless;                          !- Unit Type

OS:Schedule:Day,
  {e1bb7714-f082-49c6-a56d-e5a25c71e321}, !- Handle
  0600|2200|LargeHotel|default|clothing |default, !- Name
  {052ec04b-c27f-4e04-9e73-aa993d85ba68}, !- Schedule Type Limits Name
  ,                                       !- Interpolate to Timestep
  24,                                     !- Hour 1
  0,                                      !- Minute 1
  1;                                      !- Value Until Time 1

OS:Schedule:Day,
  {7cbcfa36-8c87-48c4-8d67-99c2d050f54a}, !- Handle
  0600|2200|LargeHotel|default|clothing Summer Design Day, !- Name
  {052ec04b-c27f-4e04-9e73-aa993d85ba68}, !- Schedule Type Limits Name
  ,                                       !- Interpolate to Timestep
  24,                                     !- Hour 1
  0,                                      !- Minute 1
  1;                                      !- Value Until Time 1

OS:Schedule:Day,
  {8e66cec4-21b7-432e-8dd6-301f87576544}, !- Handle
  0600|2200|LargeHotel|default|clothing Winter Design Day, !- Name
  {052ec04b-c27f-4e04-9e73-aa993d85ba68}, !- Schedule Type Limits Name
  ,                                       !- Interpolate to Timestep
  24,                                     !- Hour 1
  0,                                      !- Minute 1
  1;                                      !- Value Until Time 1

OS:Schedule:Rule,
  {9f39e9ff-99b7-4c68-91ba-14a3830a9a6d}, !- Handle
  0600|2200|LargeHotel|default|clothing |5/1-9/30|Mon/Tue/Wed/Thu/Fri/Sat/Sun Rule, !- Name
  {097fb3ef-c9e8-425c-8b50-89b79ccf1456}, !- Schedule Ruleset Name
  0,                                      !- Rule Order
  {365afe80-3e6b-4368-a7cb-60c1c6cbdd27}, !- Day Schedule Name
  Yes,                                    !- Apply Sunday
  Yes,                                    !- Apply Monday
  Yes,                                    !- Apply Tuesday
  Yes,                                    !- Apply Wednesday
  Yes,                                    !- Apply Thursday
  Yes,                                    !- Apply Friday
  Yes,                                    !- Apply Saturday
  ,                                       !- Apply Holiday
  DateRange,                              !- Date Specification Type
  5,                                      !- Start Month
  1,                                      !- Start Day
  9,                                      !- End Month
  30;                                     !- End Day

OS:Schedule:Day,
  {365afe80-3e6b-4368-a7cb-60c1c6cbdd27}, !- Handle
  0600|2200|LargeHotel|default|clothing |5/1-9/30|Mon/Tue/Wed/Thu/Fri/Sat/Sun, !- Name
  {052ec04b-c27f-4e04-9e73-aa993d85ba68}, !- Schedule Type Limits Name
  ,                                       !- Interpolate to Timestep
  24,                                     !- Hour 1
  0,                                      !- Minute 1
  0.5;                                    !- Value Until Time 1

OS:Schedule:Rule,
  {e83abe9c-a96c-40db-a6b4-0997347d7188}, !- Handle
  0600|2200|LargeHotel|default|clothing |10/1-12/31|Mon/Tue/Wed/Thu/Fri/Sat/Sun Rule, !- Name
  {097fb3ef-c9e8-425c-8b50-89b79ccf1456}, !- Schedule Ruleset Name
  1,                                      !- Rule Order
  {782eaad4-94f5-4be4-8b2c-3aec2f03a8cb}, !- Day Schedule Name
  Yes,                                    !- Apply Sunday
  Yes,                                    !- Apply Monday
  Yes,                                    !- Apply Tuesday
  Yes,                                    !- Apply Wednesday
  Yes,                                    !- Apply Thursday
  Yes,                                    !- Apply Friday
  Yes,                                    !- Apply Saturday
  ,                                       !- Apply Holiday
  DateRange,                              !- Date Specification Type
  10,                                     !- Start Month
  1,                                      !- Start Day
  12,                                     !- End Month
  31;                                     !- End Day

OS:Schedule:Day,
  {782eaad4-94f5-4be4-8b2c-3aec2f03a8cb}, !- Handle
  0600|2200|LargeHotel|default|clothing |10/1-12/31|Mon/Tue/Wed/Thu/Fri/Sat/Sun, !- Name
  {052ec04b-c27f-4e04-9e73-aa993d85ba68}, !- Schedule Type Limits Name
  ,                                       !- Interpolate to Timestep
  24,                                     !- Hour 1
  0,                                      !- Minute 1
  1;                                      !- Value Until Time 1

OS:Schedule:Ruleset,
  {4c17ffb0-02f9-4ca1-84d1-27c68221b74e}, !- Handle
  0600|2200|LargeHotel|default|ext_lighting, !- Name
  {db2ff230-d640-4cc1-a402-644a96d3e5a0}, !- Schedule Type Limits Name
  {4d009cf3-eaf3-4f4d-b829-c6b866b16ff4}, !- Default Day Schedule Name
  {b5b5a975-dee9-40b2-9259-7f9abe8bbe48}, !- Summer Design Day Schedule Name
  {0db96d7f-1df8-4463-9df4-c035cf354742}; !- Winter Design Day Schedule Name

OS:ScheduleTypeLimits,
  {db2ff230-d640-4cc1-a402-644a96d3e5a0}, !- Handle
  Lights Schedule Type Limits,            !- Name
  0,                                      !- Lower Limit Value {BasedOnField A4}
  1,                                      !- Upper Limit Value {BasedOnField A4}
  Continuous,                             !- Numeric Type
  Dimensionless;                          !- Unit Type

OS:Schedule:Day,
  {4d009cf3-eaf3-4f4d-b829-c6b866b16ff4}, !- Handle
  0600|2200|LargeHotel|default|ext_lighting |default, !- Name
  {db2ff230-d640-4cc1-a402-644a96d3e5a0}, !- Schedule Type Limits Name
  ,                                       !- Interpolate to Timestep
  24,                                     !- Hour 1
  0,                                      !- Minute 1
  1;                                      !- Value Until Time 1

OS:Schedule:Day,
  {b5b5a975-dee9-40b2-9259-7f9abe8bbe48}, !- Handle
  0600|2200|LargeHotel|default|ext_lighting Summer Design Day, !- Name
  {db2ff230-d640-4cc1-a402-644a96d3e5a0}, !- Schedule Type Limits Name
  ,                                       !- Interpolate to Timestep
  24,                                     !- Hour 1
  0,                                      !- Minute 1
  1;                                      !- Value Until Time 1

OS:Schedule:Day,
  {0db96d7f-1df8-4463-9df4-c035cf354742}, !- Handle
  0600|2200|LargeHotel|default|ext_lighting Winter Design Day, !- Name
  {db2ff230-d640-4cc1-a402-644a96d3e5a0}, !- Schedule Type Limits Name
  ,                                       !- Interpolate to Timestep
  24,                                     !- Hour 1
  0,                                      !- Minute 1
  1;                                      !- Value Until Time 1

OS:Schedule:Ruleset,
  {16845d5c-a6f8-4be7-825b-da5a42c2ec81}, !- Handle
  0600|2200|LargeHotel|GuestRoom|occ,     !- Name
  {3f82b41d-dfdd-4f52-a229-e6c1035ec451}, !- Schedule Type Limits Name
  {e7c0a7cd-cac5-4735-a5ff-2e1f6f822b5e}, !- Default Day Schedule Name
  {2a00f71c-0229-4fa1-a45f-672daed967dc}, !- Summer Design Day Schedule Name
  {7eb6d356-7efe-4d8b-973d-7244823180f0}; !- Winter Design Day Schedule Name

OS:ScheduleTypeLimits,
  {3f82b41d-dfdd-4f52-a229-e6c1035ec451}, !- Handle
  Occupancy Schedule Type Limits,         !- Name
  0,                                      !- Lower Limit Value {BasedOnField A4}
  1,                                      !- Upper Limit Value {BasedOnField A4}
  Continuous,                             !- Numeric Type
  Dimensionless;                          !- Unit Type

OS:Schedule:Day,
  {e7c0a7cd-cac5-4735-a5ff-2e1f6f822b5e}, !- Handle
  0600|2200|LargeHotel|GuestRoom|occ |default, !- Name
  {3f82b41d-dfdd-4f52-a229-e6c1035ec451}, !- Schedule Type Limits Name
  ,                                       !- Interpolate to Timestep
  6,                                      !- Hour 1
  0,                                      !- Minute 1
  0.65,                                   !- Value Until Time 1
  7,                                      !- Hour 2
  0,                                      !- Minute 2
  0.5,                                    !- Value Until Time 2
  9,                                      !- Hour 3
  0,                                      !- Minute 3
  0.28,                                   !- Value Until Time 3
  15,                                     !- Hour 4
  0,                                      !- Minute 4
  0.13,                                   !- Value Until Time 4
  16,                                     !- Hour 5
  0,                                      !- Minute 5
  0.2,                                    !- Value Until Time 5
  19,                                     !- Hour 6
  0,                                      !- Minute 6
  0.35,                                   !- Value Until Time 6
  21,                                     !- Hour 7
  0,                                      !- Minute 7
  0.5,                                    !- Value Until Time 7
  22,                                     !- Hour 8
  0,                                      !- Minute 8
  0.58,                                   !- Value Until Time 8
  24,                                     !- Hour 9
  0,                                      !- Minute 9
  0.65;                                   !- Value Until Time 9

OS:Schedule:Day,
  {2a00f71c-0229-4fa1-a45f-672daed967dc}, !- Handle
  0600|2200|LargeHotel|GuestRoom|occ Summer Design Day, !- Name
  {3f82b41d-dfdd-4f52-a229-e6c1035ec451}, !- Schedule Type Limits Name
  ,                                       !- Interpolate to Timestep
  7,                                      !- Hour 1
  0,                                      !- Minute 1
  1,                                      !- Value Until Time 1
  9,                                      !- Hour 2
  0,                                      !- Minute 2
  0.28,                                   !- Value Until Time 2
  15,                                     !- Hour 3
  0,                                      !- Minute 3
  0.13,                                   !- Value Until Time 3
  16,                                     !- Hour 4
  0,                                      !- Minute 4
  0.2,                                    !- Value Until Time 4
  24,                                     !- Hour 5
  0,                                      !- Minute 5
  1;                                      !- Value Until Time 5

OS:Schedule:Day,
  {7eb6d356-7efe-4d8b-973d-7244823180f0}, !- Handle
  0600|2200|LargeHotel|GuestRoom|occ Winter Design Day, !- Name
  {3f82b41d-dfdd-4f52-a229-e6c1035ec451}, !- Schedule Type Limits Name
  ,                                       !- Interpolate to Timestep
  24,                                     !- Hour 1
  0,                                      !- Minute 1
  0;                                      !- Value Until Time 1

OS:Schedule:Rule,
  {e89efd9f-8d6a-41b0-9c81-0ad1712af5a5}, !- Handle
  0600|2200|LargeHotel|GuestRoom|occ |1/1-12/31|Sat/Sun Rule, !- Name
  {16845d5c-a6f8-4be7-825b-da5a42c2ec81}, !- Schedule Ruleset Name
  0,                                      !- Rule Order
  {ecba3ae8-890d-421e-b821-58ee58d58df3}, !- Day Schedule Name
  Yes,                                    !- Apply Sunday
  ,                                       !- Apply Monday
  ,                                       !- Apply Tuesday
  ,                                       !- Apply Wednesday
  ,                                       !- Apply Thursday
  ,                                       !- Apply Friday
  Yes,                                    !- Apply Saturday
  ,                                       !- Apply Holiday
  DateRange,                              !- Date Specification Type
  1,                                      !- Start Month
  1,                                      !- Start Day
  12,                                     !- End Month
  31;                                     !- End Day

OS:Schedule:Day,
  {ecba3ae8-890d-421e-b821-58ee58d58df3}, !- Handle
  0600|2200|LargeHotel|GuestRoom|occ |1/1-12/31|Sat/Sun, !- Name
  {3f82b41d-dfdd-4f52-a229-e6c1035ec451}, !- Schedule Type Limits Name
  ,                                       !- Interpolate to Timestep