
OS:Version,
  {abc583a1-2dda-43d9-a2be-f1423d3ed706}, !- Handle
  1.5.5;                                  !- Version Identifier

OS:ClimateZones,
  {135edfab-17e7-40db-a436-27d385a8cd6d}, !- Handle
  ,                                       !- Active Institution
  ,                                       !- Active Year
  ASHRAE,                                 !- Climate Zone Institution Name 1
  ANSI/ASHRAE Standard 169,               !- Climate Zone Document Name 1
  2006,                                   !- Climate Zone Document Year 1
  ,                                       !- Climate Zone Value 1
  CEC,                                    !- Climate Zone Institution Name 2
  California Climate Zone Descriptions,   !- Climate Zone Document Name 2
  1995,                                   !- Climate Zone Document Year 2
  ;                                       !- Climate Zone Value 2

OS:YearDescription,
  {513d8dda-86cb-442a-b01c-1f7f0e0ac70e}; !- Handle

OS:RadianceParameters,
  {270a96f1-3c86-4b75-a667-cdf22790e2c8}, !- Handle
  1,                                      !- Accumulated Rays per Record
  0,                                      !- Direct Threshold
  1,                                      !- Direct Certainty
  1,                                      !- Direct Jitter
  1,                                      !- Direct Pretest
  6,                                      !- Ambient Bounces VMX
  2,                                      !- Ambient Bounces DMX
  4050,                                   !- Ambient Divisions VMX
  512,                                    !- Ambient Divisions DMX
  256,                                    !- Ambient Supersamples
  0.001,                                  !- Limit Weight VMX
  0.001,                                  !- Limit Weight DMX
  500,                                    !- Klems Sampling Density
  146;                                    !- Sky Discretization Resolution

OS:SimulationControl,
  {2c487a4c-bac9-4ac5-b669-1e49d9da7c2b}, !- Handle
  ,                                       !- Do Zone Sizing Calculation
  ,                                       !- Do System Sizing Calculation
  ,                                       !- Do Plant Sizing Calculation
  No,                                     !- Run Simulation for Sizing Periods
  ,                                       !- Run Simulation for Weather File Run Periods
  0.04,                                   !- Loads Convergence Tolerance Value
  ,                                       !- Temperature Convergence Tolerance Value {deltaC}
  ,                                       !- Solar Distribution
  ,                                       !- Maximum Number of Warmup Days
  2;                                      !- Minimum Number of Warmup Days

OS:Sizing:Parameters,
  {dde5af6f-7923-4600-a28a-7556673a0266}, !- Handle
  1.25,                                   !- Heating Sizing Factor
  1.15;                                   !- Cooling Sizing Factor

OS:ProgramControl,
  {05027a99-f2b3-4aeb-afc6-1425fbb4371d}; !- Handle

OS:Timestep,
  {4ebc9f1e-4707-402e-9844-67eb1ffbd522}, !- Handle
  2;                                      !- Number of Timesteps per Hour

OS:OutputControl:ReportingTolerances,
  {65797aa2-06a9-45fe-b69d-bc6e060399d3}; !- Handle

OS:ConvergenceLimits,
  {9fc11aba-8822-4f3d-970c-46391ba4040d}; !- Handle

OS:ShadowCalculation,
  {ca758bea-4416-4626-9bba-3d8795c79bd6}, !- Handle
  7,                                      !- Calculation Frequency
  15000;                                  !- Maximum Figures in Shadow Overlap Calculations

OS:SurfaceConvectionAlgorithm:Inside,
  {aaabfc36-718a-4ab0-b622-f186ebb45230}, !- Handle
  TARP;                                   !- Algorithm

OS:SurfaceConvectionAlgorithm:Outside,
  {9a0a9f6f-4bbd-4b12-a121-9492a1fcd7d6}, !- Handle
  DOE-2;                                  !- Algorithm

OS:HeatBalanceAlgorithm,
  {9d93e563-e1e0-46d7-9e39-d1c8aceb7212}, !- Handle
  ConductionTransferFunction,             !- Algorithm
  200;                                    !- Surface Temperature Upper Limit {F}

OS:ZoneAirHeatBalanceAlgorithm,
  {8520d93e-310f-4696-9bcd-36228bfdd743}, !- Handle
  AnalyticalSolution;                     !- Algorithm

OS:ZoneAirContaminantBalance,
  {eb5fc3ae-fb22-4160-8fcb-3e3b22b000d3}; !- Handle

OS:ZoneCapacitanceMultiplier:ResearchSpecial,
  {4020ce4f-5a7a-4849-8028-8305d7b751b1}, !- Handle
  ,                                       !- Temperature Capacity Multiplier
  ,                                       !- Humidity Capacity Multiplier
  ;                                       !- Carbon Dioxide Capacity Multiplier

OS:RunPeriod,
  {28df894d-6af9-4fb8-8f56-df1753344aa3}, !- Handle
  Run Period 1,                           !- Name
  1,                                      !- Begin Month
  1,                                      !- Begin Day of Month
  12,                                     !- End Month
  31,                                     !- End Day of Month
  ,                                       !- Use Weather File Holidays and Special Days
  ,                                       !- Use Weather File Daylight Saving Period
  ,                                       !- Apply Weekend Holiday Rule
  ,                                       !- Use Weather File Rain Indicators
  ,                                       !- Use Weather File Snow Indicators
  ;                                       !- Number of Times Runperiod to be Repeated

OS:Building,
  {bf305633-c5a1-4881-9edf-ca5e1a8e1274}, !- Handle
  Building 1,                             !- Name
  ,                                       !- Building Sector Type
  ,                                       !- North Axis {deg}
  ,                                       !- Nominal Floor to Floor Height {m}
  ,                                       !- Space Type Name
  ,                                       !- Default Construction Set Name
  {f15b0e6e-4488-4ca8-97e8-b8e6b6a16fcc}, !- Default Schedule Set Name
  ,                                       !- Standards Number of Stories
  ,                                       !- Standards Number of Above Ground Stories
  LargeHotel;                             !- Standards Building Type

OS:LifeCycleCost:Parameters,
  {231cf8a0-f0e7-4251-a99f-11f0d464e661}, !- Handle
  FEMP,                                   !- Analysis Type
  ,                                       !- Discounting Convention
  ,                                       !- Inflation Approach
  ,                                       !- Real Discount Rate
  ,                                       !- Nominal Discount Rate
  ,                                       !- Inflation
  ,                                       !- Base Date Month
  ,                                       !- Base Date Year
  ,                                       !- Service Date Month
  ,                                       !- Service Date Year
  ,                                       !- Length of Study Period in Years
  ,                                       !- Tax Rate
  ,                                       !- Depreciation Method
  Yes;                                    !- Use NIST Fuel Escalation Rates

OS:Facility,
  {3ba8e45b-b833-44eb-a723-ea6c3946dc96}; !- Handle

OS:SpaceType,
  {cbae93b6-310a-4030-9f51-857d026fe114}, !- Handle
  LargeHotel|BlendGst|DOE Ref 1980-2004|ASHRAE 169-2006-5A, !- Name
  {eb2dbaad-ec3b-495c-93c9-59e94c30f273}, !- Default Construction Set Name
  ,                                       !- Default Schedule Set Name
  {9465f305-0c40-4a8f-a59d-9806877284ce}, !- Group Rendering Name
  {6d4b31b2-5c5e-4e4d-ac8d-2438ec7d5939}, !- Design Specification Outdoor Air Object Name
  LargeHotel,                             !- Standards Building Type
  BlendGst;                               !- Standards Space Type

OS:Rendering:Color,
  {9465f305-0c40-4a8f-a59d-9806877284ce}, !- Handle
  Rendering Color 1,                      !- Name
  78,                                     !- Rendering Red Value
  167,                                    !- Rendering Green Value
  222;                                    !- Rendering Blue Value

OS:SpaceType,
  {0288536b-7558-4f42-8816-abc9dacf6a6c}, !- Handle
  LargeHotel|BlendLob|DOE Ref 1980-2004|ASHRAE 169-2006-5A, !- Name
  {eb2dbaad-ec3b-495c-93c9-59e94c30f273}, !- Default Construction Set Name
  ,                                       !- Default Schedule Set Name
  {e0c92146-3309-4688-a553-d06d2c8a62ad}, !- Group Rendering Name
  {69611a36-88ff-4b0a-93df-ef5e4efa70af}, !- Design Specification Outdoor Air Object Name
  LargeHotel,                             !- Standards Building Type
  BlendLob;                               !- Standards Space Type

OS:Rendering:Color,
  {e0c92146-3309-4688-a553-d06d2c8a62ad}, !- Handle
  Rendering Color 2,                      !- Name
  230,                                    !- Rendering Red Value
  157,                                    !- Rendering Green Value
  120;                                    !- Rendering Blue Value

OS:SpaceType,
  {837732f5-5448-41e1-960d-a533ad16e3f2}, !- Handle
  LargeHotel|BlendFds|DOE Ref 1980-2004|ASHRAE 169-2006-5A, !- Name
  {eb2dbaad-ec3b-495c-93c9-59e94c30f273}, !- Default Construction Set Name
  ,                                       !- Default Schedule Set Name
  {7c8d5a72-4c26-4338-a73c-38c5fd4acf29}, !- Group Rendering Name
  {e0b9cd76-4be5-4234-9840-ca3fbdf878b1}, !- Design Specification Outdoor Air Object Name
  LargeHotel,                             !- Standards Building Type
  BlendFds;                               !- Standards Space Type

OS:Rendering:Color,
  {7c8d5a72-4c26-4338-a73c-38c5fd4acf29}, !- Handle
  Rendering Color 3,                      !- Name
  230,                                    !- Rendering Red Value
  196,                                    !- Rendering Green Value
  120;                                    !- Rendering Blue Value

OS:SpaceType,
  {755f090d-2627-4616-9170-48b6cea537b7}, !- Handle
  LargeHotel|BlendMisc|DOE Ref 1980-2004|ASHRAE 169-2006-5A, !- Name
  {eb2dbaad-ec3b-495c-93c9-59e94c30f273}, !- Default Construction Set Name
  ,                                       !- Default Schedule Set Name
  {d354b0d2-102b-4ce5-bc64-3bd6d80e08d5}, !- Group Rendering Name
  {5ad86ee7-ee90-426c-bdfc-f86be4eb8870}, !- Design Specification Outdoor Air Object Name
  LargeHotel,                             !- Standards Building Type
  BlendMisc;                              !- Standards Space Type

OS:Rendering:Color,
  {d354b0d2-102b-4ce5-bc64-3bd6d80e08d5}, !- Handle
  Rendering Color 4,                      !- Name
  41,                                     !- Rendering Red Value
  31,                                     !- Rendering Green Value
  169;                                    !- Rendering Blue Value

OS:SpaceType,
  {1b333f89-e058-47f2-98b7-56b13f696113}, !- Handle
  LargeHotel|Kitchen|DOE Ref 1980-2004|ASHRAE 169-2006-5A, !- Name
  {eb2dbaad-ec3b-495c-93c9-59e94c30f273}, !- Default Construction Set Name
  {656d3a49-411b-487f-b4e8-b367f1bb69f1}, !- Default Schedule Set Name
  {4254a04a-1440-49d8-9354-d595acc2e038}, !- Group Rendering Name
  {4f920157-1850-469d-a3e4-04d36465562a}, !- Design Specification Outdoor Air Object Name
  LargeHotel,                             !- Standards Building Type
  Kitchen;                                !- Standards Space Type

OS:Rendering:Color,
  {4254a04a-1440-49d8-9354-d595acc2e038}, !- Handle
  Rendering Color 5,                      !- Name
  78,                                     !- Rendering Red Value
  222,                                    !- Rendering Green Value
  133;                                    !- Rendering Blue Value

OS:SpaceType,
  {362c0905-1fb6-4bb4-a024-e021c191dfe7}, !- Handle
  LargeHotel|Laundry|DOE Ref 1980-2004|ASHRAE 169-2006-5A, !- Name
  {eb2dbaad-ec3b-495c-93c9-59e94c30f273}, !- Default Construction Set Name
  {648eaa4d-1eeb-43ce-8572-bc9f67bd1061}, !- Default Schedule Set Name
  {d28dbc3a-90bd-44d3-a707-90a2cd0ef37c}, !- Group Rendering Name
  {4e13db99-5715-46dd-8344-6d1296626120}, !- Design Specification Outdoor Air Object Name
  LargeHotel,                             !- Standards Building Type
  Laundry;                                !- Standards Space Type

OS:Rendering:Color,
  {d28dbc3a-90bd-44d3-a707-90a2cd0ef37c}, !- Handle
  Rendering Color 6,                      !- Name
  120,                                    !- Rendering Red Value
  149,                                    !- Rendering Green Value
  230;                                    !- Rendering Blue Value

OS:Schedule:Ruleset,
  {2d6cd6f1-9b95-4fe4-b459-87d9dde9bcc1}, !- Handle
  0600|2200|LargeHotel|default|hoo,       !- Name
  {f7063c26-c686-4b12-9059-e91dac34e84b}, !- Schedule Type Limits Name
  {9a1bd8a6-6282-4ffe-9723-75eda5ec117f}, !- Default Day Schedule Name
  {45cca1a0-9c76-4010-80ab-8f8f46e8ceb9}, !- Summer Design Day Schedule Name
  {1c4fd73f-73c1-4ebb-ba2a-e147cc2bbefb}; !- Winter Design Day Schedule Name

OS:Schedule:Day,
  {9a1bd8a6-6282-4ffe-9723-75eda5ec117f}, !- Handle
  0600|2200|LargeHotel|default|hoo Schedule Week Day, !- Name
  {f7063c26-c686-4b12-9059-e91dac34e84b}, !- Schedule Type Limits Name
  ,                                       !- Interpolate to Timestep
  6,                                      !- Hour 1
  0,                                      !- Minute 1
  0,                                      !- Value Until Time 1
  22,                                     !- Hour 2
  0,                                      !- Minute 2
  1,                                      !- Value Until Time 2
  24,                                     !- Hour 3
  0,                                      !- Minute 3
  0;                                      !- Value Until Time 3

OS:Schedule:Day,
  {3a60ad78-09ab-4afc-be26-e795ccc5f52f}, !- Handle
  Schedule Day 2,                         !- Name
  ,                                       !- Schedule Type Limits Name
  ,                                       !- Interpolate to Timestep
  24,                                     !- Hour 1
  0,                                      !- Minute 1
  0;                                      !- Value Until Time 1

OS:Schedule:Day,
  {1c4fd73f-73c1-4ebb-ba2a-e147cc2bbefb}, !- Handle
  0600|2200|LargeHotel|default|hoo Winter Design Day, !- Name
  {f7063c26-c686-4b12-9059-e91dac34e84b}, !- Schedule Type Limits Name
  ,                                       !- Interpolate to Timestep
  24,                                     !- Hour 1
  0,                                      !- Minute 1
  0;                                      !- Value Until Time 1

OS:Schedule:Day,
  {be6286cf-dc93-446b-b695-80e08afbe2ba}, !- Handle
  Schedule Day 3,                         !- Name
  ,                                       !- Schedule Type Limits Name
  ,                                       !- Interpolate to Timestep
  24,                                     !- Hour 1
  0,                                      !- Minute 1
  0;                                      !- Value Until Time 1

OS:Schedule:Day,
  {45cca1a0-9c76-4010-80ab-8f8f46e8ceb9}, !- Handle
  0600|2200|LargeHotel|default|hoo Summer Design Day, !- Name
  {f7063c26-c686-4b12-9059-e91dac34e84b}, !- Schedule Type Limits Name
  ,                                       !- Interpolate to Timestep
  24,                                     !- Hour 1
  0,                                      !- Minute 1
  1;                                      !- Value Until Time 1

OS:DefaultScheduleSet,
  {f15b0e6e-4488-4ca8-97e8-b8e6b6a16fcc}, !- Handle
  Building Hours of Operation,            !- Name
  {2d6cd6f1-9b95-4fe4-b459-87d9dde9bcc1}, !- Hours of Operation Schedule Name
  ,                                       !- Number of People Schedule Name
  ,                                       !- People Activity Level Schedule Name
  ,                                       !- Lighting Schedule Name
  ,                                       !- Electric Equipment Schedule Name
  ,                                       !- Gas Equipment Schedule Name
  ,                                       !- Hot Water Equipment Schedule Name
  ,                                       !- Infiltration Schedule Name
  ,                                       !- Steam Equipment Schedule Name
  ;                                       !- Other Equipment Schedule Name

OS:ScheduleTypeLimits,
  {f7063c26-c686-4b12-9059-e91dac34e84b}, !- Handle
  OnOff,                                  !- Name
  0,                                      !- Lower Limit Value {BasedOnField A4}
  1,                                      !- Upper Limit Value {BasedOnField A4}
  Discrete,                               !- Numeric Type
  Availability;                           !- Unit Type

OS:Schedule:Ruleset,
  {eabcd3cc-f783-4c65-a008-3ef1a39f4778}, !- Handle
  0600|2200|LargeHotel|Lobby|occ,         !- Name
  {4bc6b5e4-760c-49e0-b448-466870549b2a}, !- Schedule Type Limits Name
  {0d2e9d96-10bd-4233-b984-bb63f5896300}, !- Default Day Schedule Name
  {b56ef3de-c2fc-4a99-a6d7-e28bef66334d}, !- Summer Design Day Schedule Name
  {0d494a17-345a-4eaa-88c1-fe17c4376e7a}; !- Winter Design Day Schedule Name

OS:ScheduleTypeLimits,
  {4bc6b5e4-760c-49e0-b448-466870549b2a}, !- Handle
  Occupancy Schedule Type Limits,         !- Name
  0,                                      !- Lower Limit Value {BasedOnField A4}
  1,                                      !- Upper Limit Value {BasedOnField A4}
  Continuous,                             !- Numeric Type
  Dimensionless;                          !- Unit Type

OS:Schedule:Day,
  {0d2e9d96-10bd-4233-b984-bb63f5896300}, !- Handle
  0600|2200|LargeHotel|Lobby|occ |default, !- Name
  {4bc6b5e4-760c-49e0-b448-466870549b2a}, !- Schedule Type Limits Name
  ,                                       !- Interpolate to Timestep
  5,                                      !- Hour 1
  0,                                      !- Minute 1
  0.1,                                    !- Value Until Time 1
  6,                                      !- Hour 2
  0,                                      !- Minute 2
  0.3,                                    !- Value Until Time 2
  10,                                     !- Hour 3
  0,                                      !- Minute 3
  0.7,                                    !- Value Until Time 3
  16,                                     !- Hour 4
  0,                                      !- Minute 4
  0.2,                                    !- Value Until Time 4
  18,                                     !- Hour 5
  0,                                      !- Minute 5
  0.4,                                    !- Value Until Time 5
  22,                                     !- Hour 6
  0,                                      !- Minute 6
  0.2,                                    !- Value Until Time 6
  24,                                     !- Hour 7
  0,                                      !- Minute 7
  0.1;                                    !- Value Until Time 7

OS:Schedule:Day,
  {b56ef3de-c2fc-4a99-a6d7-e28bef66334d}, !- Handle
  0600|2200|LargeHotel|Lobby|occ Summer Design Day, !- Name
  {4bc6b5e4-760c-49e0-b448-466870549b2a}, !- Schedule Type Limits Name
  ,                                       !- Interpolate to Timestep
  5,                                      !- Hour 1
  0,                                      !- Minute 1
  0.1,                                    !- Value Until Time 1
  10,                                     !- Hour 2
  0,                                      !- Minute 2
  1,                                      !- Value Until Time 2
  16,                                     !- Hour 3
  0,                                      !- Minute 3
  0.2,                                    !- Value Until Time 3
  18,                                     !- Hour 4
  0,                                      !- Minute 4
  1,                                      !- Value Until Time 4
  22,                                     !- Hour 5
  0,                                      !- Minute 5
  0.2,                                    !- Value Until Time 5
  24,                                     !- Hour 6
  0,                                      !- Minute 6
  0.1;                                    !- Value Until Time 6

OS:Schedule:Day,
  {0d494a17-345a-4eaa-88c1-fe17c4376e7a}, !- Handle
  0600|2200|LargeHotel|Lobby|occ Winter Design Day, !- Name
  {4bc6b5e4-760c-49e0-b448-466870549b2a}, !- Schedule Type Limits Name
  ,                                       !- Interpolate to Timestep
  24,                                     !- Hour 1
  0,                                      !- Minute 1
  0;                                      !- Value Until Time 1

OS:Schedule:Rule,
  {cdf19f1a-7071-4e0f-ab3e-03d80f7edb29}, !- Handle
  0600|2200|LargeHotel|Lobby|occ |1/1-12/31|Sat/Sun Rule, !- Name
  {eabcd3cc-f783-4c65-a008-3ef1a39f4778}, !- Schedule Ruleset Name
  0,                                      !- Rule Order
  {2ffbf1d9-b935-4c68-bac7-9853e40f5c06}, !- Day Schedule Name
  Yes,                                    !- Apply Sunday
  ,                                       !- Apply Monday
  ,                                       !- Apply Tuesday
  ,                                       !- Apply Wednesday
  ,                                       !- Apply Thursday
  ,                                       !- Apply Friday
  Yes,                                    !- Apply Saturday
  ,                                       !- Apply Holiday
  DateRange,                              !- Date Specification Type
  1,                                      !- Start Month
  1,                                      !- Start Day
  12,                                     !- End Month
  31;                                     !- End Day

OS:Schedule:Day,
  {2ffbf1d9-b935-4c68-bac7-9853e40f5c06}, !- Handle
  0600|2200|LargeHotel|Lobby|occ |1/1-12/31|Sat/Sun, !- Name
  {4bc6b5e4-760c-49e0-b448-466870549b2a}, !- Schedule Type Limits Name
  ,                                       !- Interpolate to Timestep
  6,                                      !- Hour 1
  0,                                      !- Minute 1
  0.1,                                    !- Value Until Time 1
  7,                                      !- Hour 2
  0,                                      !- Minute 2
  0.3,                                    !- Value Until Time 2
  10,                                     !- Hour 3
  0,                                      !- Minute 3
  0.7,                                    !- Value Until Time 3
  22,                                     !- Hour 4
  0,                                      !- Minute 4
  0.2,                                    !- Value Until Time 4
  24,                                     !- Hour 5
  0,                                      !- Minute 5
  0.1;                                    !- Value Until Time 5

OS:Schedule:Ruleset,
  {fd835e5c-bc63-4e05-a017-c7f7763c69f2}, !- Handle
  0600|2200|LargeHotel|default|infiltration, !- Name
  {3f1f3a24-9dae-459a-bbac-75754acd0cf1}, !- Schedule Type Limits Name
  {c3ae0cb6-7aeb-495f-bb6b-8a0dc84f8463}, !- Default Day Schedule Name
  {b5e9ed8c-7b67-4640-a8ec-06f67606f6bd}, !- Summer Design Day Schedule Name
  {244ecae9-216b-40cd-af32-c0beecc7c3ac}; !- Winter Design Day Schedule Name

OS:ScheduleTypeLimits,
  {3f1f3a24-9dae-459a-bbac-75754acd0cf1}, !- Handle
  Fraction Schedule Type Limits,          !- Name
  0,                                      !- Lower Limit Value {BasedOnField A4}
  1,                                      !- Upper Limit Value {BasedOnField A4}
  Continuous,                             !- Numeric Type
  Dimensionless;                          !- Unit Type

OS:Schedule:Day,
  {c3ae0cb6-7aeb-495f-bb6b-8a0dc84f8463}, !- Handle
  0600|2200|LargeHotel|default|infiltration |default, !- Name
  {3f1f3a24-9dae-459a-bbac-75754acd0cf1}, !- Schedule Type Limits Name
  ,                                       !- Interpolate to Timestep
  24,                                     !- Hour 1
  0,                                      !- Minute 1
  0.25;                                   !- Value Until Time 1

OS:Schedule:Day,
  {b5e9ed8c-7b67-4640-a8ec-06f67606f6bd}, !- Handle
  0600|2200|LargeHotel|default|infiltration Summer Design Day, !- Name
  {3f1f3a24-9dae-459a-bbac-75754acd0cf1}, !- Schedule Type Limits Name
  ,                                       !- Interpolate to Timestep
  24,                                     !- Hour 1
  0,                                      !- Minute 1
  0.25;                                   !- Value Until Time 1

OS:Schedule:Day,
  {244ecae9-216b-40cd-af32-c0beecc7c3ac}, !- Handle
  0600|2200|LargeHotel|default|infiltration Winter Design Day, !- Name
  {3f1f3a24-9dae-459a-bbac-75754acd0cf1}, !- Schedule Type Limits Name
  ,                                       !- Interpolate to Timestep
  24,                                     !- Hour 1
  0,                                      !- Minute 1
  0.25;                                   !- Value Until Time 1

OS:Schedule:Ruleset,
  {709efb31-57de-4a28-9f73-b988de285dcb}, !- Handle
  0600|2200|LargeHotel|default|clg_setpoint, !- Name
  {eb651b2f-5caa-427e-8445-d7f31bc00651}, !- Schedule Type Limits Name
  {7e40000a-2528-4aaa-8db3-42e1cbda9ead}, !- Default Day Schedule Name
  {8e520d9d-2e5d-44d1-8473-46356e72163e}, !- Summer Design Day Schedule Name
  {eb4a86b5-4986-42f7-a6be-06d200e84dec}; !- Winter Design Day Schedule Name

OS:ScheduleTypeLimits,
  {eb651b2f-5caa-427e-8445-d7f31bc00651}, !- Handle
  Thermostat Cooling Setpoint Schedule Type Limits, !- Name
  0,                                      !- Lower Limit Value {BasedOnField A4}
  100,                                    !- Upper Limit Value {BasedOnField A4}
  Continuous,                             !- Numeric Type
  Temperature;                            !- Unit Type

OS:Schedule:Day,
  {7e40000a-2528-4aaa-8db3-42e1cbda9ead}, !- Handle
  0600|2200|LargeHotel|default|clg_setpoint |default, !- Name
  {eb651b2f-5caa-427e-8445-d7f31bc00651}, !- Schedule Type Limits Name
  ,                                       !- Interpolate to Timestep
  24,                                     !- Hour 1
  0,                                      !- Minute 1
  24.0000000000001;                       !- Value Until Time 1

OS:Schedule:Day,
  {8e520d9d-2e5d-44d1-8473-46356e72163e}, !- Handle
  0600|2200|LargeHotel|default|clg_setpoint Summer Design Day, !- Name
  {eb651b2f-5caa-427e-8445-d7f31bc00651}, !- Schedule Type Limits Name
  ,                                       !- Interpolate to Timestep
  24,                                     !- Hour 1
  0,                                      !- Minute 1
  24.0000000000001;                       !- Value Until Time 1

OS:Schedule:Day,
  {eb4a86b5-4986-42f7-a6be-06d200e84dec}, !- Handle
  0600|2200|LargeHotel|default|clg_setpoint Winter Design Day, !- Name
  {eb651b2f-5caa-427e-8445-d7f31bc00651}, !- Schedule Type Limits Name
  ,                                       !- Interpolate to Timestep
  24,                                     !- Hour 1
  0,                                      !- Minute 1
  24.0000000000001;                       !- Value Until Time 1

OS:Schedule:Ruleset,
  {2557253d-c323-466d-8276-2d39ddd92a22}, !- Handle
  0600|2200|LargeHotel|GuestRoom|elec_equip, !- Name
  {4ed3c675-8308-4be3-8f10-55dd2d619bbb}, !- Schedule Type Limits Name
  {9ad5c80c-74e1-4831-8990-027e083af24b}, !- Default Day Schedule Name
  {5399dcab-435b-4b80-9262-82f214b1a335}, !- Summer Design Day Schedule Name
  {b8a1905b-d31b-4dee-97f0-7c22765d9820}; !- Winter Design Day Schedule Name

OS:ScheduleTypeLimits,
  {4ed3c675-8308-4be3-8f10-55dd2d619bbb}, !- Handle
  Equipment Schedule Type Limits,         !- Name
  0,                                      !- Lower Limit Value {BasedOnField A4}
  1,                                      !- Upper Limit Value {BasedOnField A4}
  Continuous,                             !- Numeric Type
  Dimensionless;                          !- Unit Type

OS:Schedule:Day,
  {9ad5c80c-74e1-4831-8990-027e083af24b}, !- Handle
  0600|2200|LargeHotel|GuestRoom|elec_equip |default, !- Name
  {4ed3c675-8308-4be3-8f10-55dd2d619bbb}, !- Schedule Type Limits Name
  ,                                       !- Interpolate to Timestep
  6,                                      !- Hour 1
  0,                                      !- Minute 1
  0.2,                                    !- Value Until Time 1
  7,                                      !- Hour 2
  0,                                      !- Minute 2
  0.62,                                   !- Value Until Time 2
  8,                                      !- Hour 3
  0,                                      !- Minute 3
  0.9,                                    !- Value Until Time 3
  10,                                     !- Hour 4
  0,                                      !- Minute 4
  0.43,                                   !- Value Until Time 4
  17,                                     !- Hour 5
  0,                                      !- Minute 5
  0.26,                                   !- Value Until Time 5
  19,                                     !- Hour 6
  0,                                      !- Minute 6
  0.51,                                   !- Value Until Time 6
  20,                                     !- Hour 7
  0,                                      !- Minute 7
  0.49,                                   !- Value Until Time 7
  21,                                     !- Hour 8
  0,                                      !- Minute 8
  0.66,                                   !- Value Until Time 8
  22,                                     !- Hour 9