
OS:Version,
  {6b4a03a0-f009-48f7-8969-9c6ace5357f4}, !- Handle
  1.6.0;                                  !- Version Identifier

OS:ClimateZones,
  {135edfab-17e7-40db-a436-27d385a8cd6d}, !- Handle
  ,                                       !- Active Institution
  ,                                       !- Active Year
  ASHRAE,                                 !- Climate Zone Institution Name 1
  ANSI/ASHRAE Standard 169,               !- Climate Zone Document Name 1
  2006,                                   !- Climate Zone Document Year 1
  ,                                       !- Climate Zone Value 1
  CEC,                                    !- Climate Zone Institution Name 2
  California Climate Zone Descriptions,   !- Climate Zone Document Name 2
  1995,                                   !- Climate Zone Document Year 2
  ;                                       !- Climate Zone Value 2

OS:YearDescription,
  {513d8dda-86cb-442a-b01c-1f7f0e0ac70e}; !- Handle

OS:RadianceParameters,
  {270a96f1-3c86-4b75-a667-cdf22790e2c8}, !- Handle
  1,                                      !- Accumulated Rays per Record
  0,                                      !- Direct Threshold
  1,                                      !- Direct Certainty
  1,                                      !- Direct Jitter
  1,                                      !- Direct Pretest
  6,                                      !- Ambient Bounces VMX
  2,                                      !- Ambient Bounces DMX
  4050,                                   !- Ambient Divisions VMX
  512,                                    !- Ambient Divisions DMX
  256,                                    !- Ambient Supersamples
  0.001,                                  !- Limit Weight VMX
  0.001,                                  !- Limit Weight DMX
  500,                                    !- Klems Sampling Density
  146;                                    !- Sky Discretization Resolution

OS:SimulationControl,
  {2c487a4c-bac9-4ac5-b669-1e49d9da7c2b}, !- Handle
  ,                                       !- Do Zone Sizing Calculation
  ,                                       !- Do System Sizing Calculation
  ,                                       !- Do Plant Sizing Calculation
  No,                                     !- Run Simulation for Sizing Periods
  ,                                       !- Run Simulation for Weather File Run Periods
  0.04,                                   !- Loads Convergence Tolerance Value
  ,                                       !- Temperature Convergence Tolerance Value {deltaC}
  ,                                       !- Solar Distribution
  ,                                       !- Maximum Number of Warmup Days
  2;                                      !- Minimum Number of Warmup Days

OS:Sizing:Parameters,
  {dde5af6f-7923-4600-a28a-7556673a0266}, !- Handle
  1.25,                                   !- Heating Sizing Factor
  1.15;                                   !- Cooling Sizing Factor

OS:ProgramControl,
  {05027a99-f2b3-4aeb-afc6-1425fbb4371d}; !- Handle

OS:Timestep,
  {4ebc9f1e-4707-402e-9844-67eb1ffbd522}, !- Handle
  2;                                      !- Number of Timesteps per Hour

OS:OutputControl:ReportingTolerances,
  {65797aa2-06a9-45fe-b69d-bc6e060399d3}; !- Handle

OS:ConvergenceLimits,
  {9fc11aba-8822-4f3d-970c-46391ba4040d}; !- Handle

OS:ShadowCalculation,
  {ca758bea-4416-4626-9bba-3d8795c79bd6}, !- Handle
  7,                                      !- Calculation Frequency
  15000;                                  !- Maximum Figures in Shadow Overlap Calculations

OS:SurfaceConvectionAlgorithm:Inside,
  {aaabfc36-718a-4ab0-b622-f186ebb45230}, !- Handle
  TARP;                                   !- Algorithm

OS:SurfaceConvectionAlgorithm:Outside,
  {9a0a9f6f-4bbd-4b12-a121-9492a1fcd7d6}, !- Handle
  DOE-2;                                  !- Algorithm

OS:HeatBalanceAlgorithm,
  {9d93e563-e1e0-46d7-9e39-d1c8aceb7212}, !- Handle
  ConductionTransferFunction,             !- Algorithm
  200;                                    !- Surface Temperature Upper Limit {F}

OS:ZoneAirHeatBalanceAlgorithm,
  {8520d93e-310f-4696-9bcd-36228bfdd743}, !- Handle
  AnalyticalSolution;                     !- Algorithm

OS:ZoneAirContaminantBalance,
  {eb5fc3ae-fb22-4160-8fcb-3e3b22b000d3}; !- Handle

OS:ZoneCapacitanceMultiplier:ResearchSpecial,
  {4020ce4f-5a7a-4849-8028-8305d7b751b1}, !- Handle
  ,                                       !- Temperature Capacity Multiplier
  ,                                       !- Humidity Capacity Multiplier
  ;                                       !- Carbon Dioxide Capacity Multiplier

OS:RunPeriod,
  {28df894d-6af9-4fb8-8f56-df1753344aa3}, !- Handle
  Run Period 1,                           !- Name
  1,                                      !- Begin Month
  1,                                      !- Begin Day of Month
  12,                                     !- End Month
  31,                                     !- End Day of Month
  ,                                       !- Use Weather File Holidays and Special Days
  ,                                       !- Use Weather File Daylight Saving Period
  ,                                       !- Apply Weekend Holiday Rule
  ,                                       !- Use Weather File Rain Indicators
  ,                                       !- Use Weather File Snow Indicators
  ;                                       !- Number of Times Runperiod to be Repeated

OS:Building,
  {bf305633-c5a1-4881-9edf-ca5e1a8e1274}, !- Handle
  Building 1,                             !- Name
  ,                                       !- Building Sector Type
  ,                                       !- North Axis {deg}
  ,                                       !- Nominal Floor to Floor Height {m}
  ,                                       !- Space Type Name
  ,                                       !- Default Construction Set Name
  {475d2e6a-e67f-4c7a-8470-37b8ebc529e7}, !- Default Schedule Set Name
  ,                                       !- Standards Number of Stories
  ,                                       !- Standards Number of Above Ground Stories
  MidriseApartment;                       !- Standards Building Type

OS:LifeCycleCost:Parameters,
  {231cf8a0-f0e7-4251-a99f-11f0d464e661}, !- Handle
  FEMP,                                   !- Analysis Type
  ,                                       !- Discounting Convention
  ,                                       !- Inflation Approach
  ,                                       !- Real Discount Rate
  ,                                       !- Nominal Discount Rate
  ,                                       !- Inflation
  ,                                       !- Base Date Month
  ,                                       !- Base Date Year
  ,                                       !- Service Date Month
  ,                                       !- Service Date Year
  ,                                       !- Length of Study Period in Years
  ,                                       !- Tax Rate
  ,                                       !- Depreciation Method
  Yes;                                    !- Use NIST Fuel Escalation Rates

OS:Facility,
  {3ba8e45b-b833-44eb-a723-ea6c3946dc96}; !- Handle

OS:SpaceType,
  {6290c07a-229c-42d0-b261-85f5f2f8c4a3}, !- Handle
  MidriseApartment|BlendA|DOE Ref Pre-1980|ASHRAE 169-2006-5A, !- Name
  {87a2706c-ad39-4fa2-a8f5-54eaefcbff25}, !- Default Construction Set Name
  ,                                       !- Default Schedule Set Name
  {f5a802a2-4b96-4b96-a049-92cf0d0942b4}, !- Group Rendering Name
  {3e1b04e6-2113-4277-af66-71fffffe4508}, !- Design Specification Outdoor Air Object Name
  MidriseApartment,                       !- Standards Building Type
  BlendA;                                 !- Standards Space Type

OS:Rendering:Color,
  {f5a802a2-4b96-4b96-a049-92cf0d0942b4}, !- Handle
  Rendering Color 1,                      !- Name
  78,                                     !- Rendering Red Value
  167,                                    !- Rendering Green Value
  222;                                    !- Rendering Blue Value

OS:SpaceType,
  {ab5b4201-6a21-4ab0-a7ca-e2837291bfc8}, !- Handle
  MidriseApartment|Office|DOE Ref Pre-1980|ASHRAE 169-2006-5A, !- Name
  {87a2706c-ad39-4fa2-a8f5-54eaefcbff25}, !- Default Construction Set Name
  {a67832d9-f176-4a8e-a998-91c532747d30}, !- Default Schedule Set Name
  {684714f9-4020-4d32-aad0-3b0a0d61a404}, !- Group Rendering Name
  {8dc35f6d-1493-436d-81be-ad5db5a7adf1}, !- Design Specification Outdoor Air Object Name
  MidriseApartment,                       !- Standards Building Type
  Office;                                 !- Standards Space Type

OS:Rendering:Color,
  {684714f9-4020-4d32-aad0-3b0a0d61a404}, !- Handle
  Rendering Color 2,                      !- Name
  120,                                    !- Rendering Red Value
  230,                                    !- Rendering Green Value
  199;                                    !- Rendering Blue Value

OS:Schedule:Ruleset,
  {af9b6ff8-42b9-4ed6-a239-46e62c5a02ff}, !- Handle
  0800|1800|MidriseApartment|default|hoo, !- Name
  {e5eb5a9a-110b-4866-966a-2a1800c5d32a}, !- Schedule Type Limits Name
  {f68c8433-5503-4cec-ae39-97d1d9f54169}, !- Default Day Schedule Name
  {f6f2b863-9e68-46ea-815b-dc5d134553dd}, !- Summer Design Day Schedule Name
  {b5517f18-3c76-4cf8-a334-101e9f51ab7e}; !- Winter Design Day Schedule Name

OS:Schedule:Day,
  {f68c8433-5503-4cec-ae39-97d1d9f54169}, !- Handle
  0800|1800|MidriseApartment|default|hoo Schedule Week Day, !- Name
  {e5eb5a9a-110b-4866-966a-2a1800c5d32a}, !- Schedule Type Limits Name
  ,                                       !- Interpolate to Timestep
  8,                                      !- Hour 1
  0,                                      !- Minute 1
  0,                                      !- Value Until Time 1
  18,                                     !- Hour 2
  0,                                      !- Minute 2
  1,                                      !- Value Until Time 2
  24,                                     !- Hour 3
  0,                                      !- Minute 3
  0;                                      !- Value Until Time 3

OS:Schedule:Day,
  {cbd863ba-35e0-4ecd-a21b-127f3fddfb6c}, !- Handle
  Schedule Day 2,                         !- Name
  ,                                       !- Schedule Type Limits Name
  ,                                       !- Interpolate to Timestep
  24,                                     !- Hour 1
  0,                                      !- Minute 1
  0;                                      !- Value Until Time 1

OS:Schedule:Day,
  {b5517f18-3c76-4cf8-a334-101e9f51ab7e}, !- Handle
  0800|1800|MidriseApartment|default|hoo Winter Design Day, !- Name
  {e5eb5a9a-110b-4866-966a-2a1800c5d32a}, !- Schedule Type Limits Name
  ,                                       !- Interpolate to Timestep
  24,                                     !- Hour 1
  0,                                      !- Minute 1
  0;                                      !- Value Until Time 1

OS:Schedule:Day,
  {cc530bf5-6389-49ab-95ac-6d25c23c6187}, !- Handle
  Schedule Day 3,                         !- Name
  ,                                       !- Schedule Type Limits Name
  ,                                       !- Interpolate to Timestep
  24,                                     !- Hour 1
  0,                                      !- Minute 1
  0;                                      !- Value Until Time 1

OS:Schedule:Day,
  {f6f2b863-9e68-46ea-815b-dc5d134553dd}, !- Handle
  0800|1800|MidriseApartment|default|hoo Summer Design Day, !- Name
  {e5eb5a9a-110b-4866-966a-2a1800c5d32a}, !- Schedule Type Limits Name
  ,                                       !- Interpolate to Timestep
  24,                                     !- Hour 1
  0,                                      !- Minute 1
  1;                                      !- Value Until Time 1

OS:DefaultScheduleSet,
  {475d2e6a-e67f-4c7a-8470-37b8ebc529e7}, !- Handle
  Building Hours of Operation,            !- Name
  {af9b6ff8-42b9-4ed6-a239-46e62c5a02ff}, !- Hours of Operation Schedule Name
  ,                                       !- Number of People Schedule Name
  ,                                       !- People Activity Level Schedule Name
  ,                                       !- Lighting Schedule Name
  ,                                       !- Electric Equipment Schedule Name
  ,                                       !- Gas Equipment Schedule Name
  ,                                       !- Hot Water Equipment Schedule Name
  ,                                       !- Infiltration Schedule Name
  ,                                       !- Steam Equipment Schedule Name
  ;                                       !- Other Equipment Schedule Name

OS:ScheduleTypeLimits,
  {e5eb5a9a-110b-4866-966a-2a1800c5d32a}, !- Handle
  OnOff,                                  !- Name
  0,                                      !- Lower Limit Value {BasedOnField A4}
  1,                                      !- Upper Limit Value {BasedOnField A4}
  Discrete,                               !- Numeric Type
  Availability;                           !- Unit Type

OS:Schedule:Ruleset,
  {80fa0edb-4d4a-47c9-810f-7c9cc53ad05d}, !- Handle
  0800|1800|MidriseApartment|default|hw_loop_temp, !- Name
  {438c8735-479f-47da-bfdf-478eb57ab966}, !- Schedule Type Limits Name
  {d4d2406f-5b6c-4a82-94f8-d3f194ab7081}, !- Default Day Schedule Name
  {6ed9fc0f-2d11-4303-8273-1987370a1832}, !- Summer Design Day Schedule Name
  {b7295d8d-44e2-44eb-b8d9-93cb99a95bc9}; !- Winter Design Day Schedule Name

OS:ScheduleTypeLimits,
  {438c8735-479f-47da-bfdf-478eb57ab966}, !- Handle
  Temperature Schedule Type Limits,       !- Name
  ,                                       !- Lower Limit Value {BasedOnField A4}
  ,                                       !- Upper Limit Value {BasedOnField A4}
  Continuous,                             !- Numeric Type
  Temperature;                            !- Unit Type

OS:Schedule:Day,
  {d4d2406f-5b6c-4a82-94f8-d3f194ab7081}, !- Handle
  0800|1800|MidriseApartment|default|hw_loop_temp |default, !- Name
  {438c8735-479f-47da-bfdf-478eb57ab966}, !- Schedule Type Limits Name
  ,                                       !- Interpolate to Timestep
  24,                                     !- Hour 1
  0,                                      !- Minute 1
  60.0000000000001;                       !- Value Until Time 1

OS:Schedule:Day,
  {6ed9fc0f-2d11-4303-8273-1987370a1832}, !- Handle
  0800|1800|MidriseApartment|default|hw_loop_temp Summer Design Day, !- Name
  {438c8735-479f-47da-bfdf-478eb57ab966}, !- Schedule Type Limits Name
  ,                                       !- Interpolate to Timestep
  24,                                     !- Hour 1
  0,                                      !- Minute 1
  60.0000000000001;                       !- Value Until Time 1

OS:Schedule:Day,
  {b7295d8d-44e2-44eb-b8d9-93cb99a95bc9}, !- Handle
  0800|1800|MidriseApartment|default|hw_loop_temp Winter Design Day, !- Name
  {438c8735-479f-47da-bfdf-478eb57ab966}, !- Schedule Type Limits Name
  ,                                       !- Interpolate to Timestep
  24,                                     !- Hour 1
  0,                                      !- Minute 1
  60.0000000000001;                       !- Value Until Time 1

OS:Schedule:Ruleset,
  {b66a1fff-1445-44f3-8e64-c1707db414f8}, !- Handle
  0800|1800|MidriseApartment|Office|infiltration, !- Name
  {8919110d-349a-4821-93da-33a1ab74481f}, !- Schedule Type Limits Name
  {add7122c-9ef0-4237-97b6-b34980a5d50d}, !- Default Day Schedule Name
  {be586014-871e-4e12-ba87-cdeebd65af08}, !- Summer Design Day Schedule Name
  {8b52b3a3-ace4-449d-a50f-618b677771b9}; !- Winter Design Day Schedule Name

OS:ScheduleTypeLimits,
  {8919110d-349a-4821-93da-33a1ab74481f}, !- Handle
  Fraction Schedule Type Limits,          !- Name
  0,                                      !- Lower Limit Value {BasedOnField A4}
  1,                                      !- Upper Limit Value {BasedOnField A4}
  Continuous,                             !- Numeric Type
  Dimensionless;                          !- Unit Type

OS:Schedule:Day,
  {add7122c-9ef0-4237-97b6-b34980a5d50d}, !- Handle
  0800|1800|MidriseApartment|Office|infiltration |default, !- Name
  {8919110d-349a-4821-93da-33a1ab74481f}, !- Schedule Type Limits Name
  ,                                       !- Interpolate to Timestep
  8,                                      !- Hour 1
  0,                                      !- Minute 1
  1,                                      !- Value Until Time 1
  17,                                     !- Hour 2
  0,                                      !- Minute 2
  0.25,                                   !- Value Until Time 2
  24,                                     !- Hour 3
  0,                                      !- Minute 3
  1;                                      !- Value Until Time 3

OS:Schedule:Day,
  {be586014-871e-4e12-ba87-cdeebd65af08}, !- Handle
  0800|1800|MidriseApartment|Office|infiltration Summer Design Day, !- Name
  {8919110d-349a-4821-93da-33a1ab74481f}, !- Schedule Type Limits Name
  ,                                       !- Interpolate to Timestep
  8,                                      !- Hour 1
  0,                                      !- Minute 1
  1,                                      !- Value Until Time 1
  17,                                     !- Hour 2
  0,                                      !- Minute 2
  0.25,                                   !- Value Until Time 2
  24,                                     !- Hour 3
  0,                                      !- Minute 3
  1;                                      !- Value Until Time 3

OS:Schedule:Day,
  {8b52b3a3-ace4-449d-a50f-618b677771b9}, !- Handle
  0800|1800|MidriseApartment|Office|infiltration Winter Design Day, !- Name
  {8919110d-349a-4821-93da-33a1ab74481f}, !- Schedule Type Limits Name
  ,                                       !- Interpolate to Timestep
  8,                                      !- Hour 1
  0,                                      !- Minute 1
  1,                                      !- Value Until Time 1
  17,                                     !- Hour 2
  0,                                      !- Minute 2
  0.25,                                   !- Value Until Time 2
  24,                                     !- Hour 3
  0,                                      !- Minute 3
  1;                                      !- Value Until Time 3

OS:Schedule:Ruleset,
  {5048ab25-fb03-4d35-943c-c380827edd6f}, !- Handle
  0800|1800|MidriseApartment|default|clothing, !- Name
  {f0d36d5f-bec7-4166-89d2-de8a38a2b0f3}, !- Schedule Type Limits Name
  {c82147fc-0e62-481f-ac0d-e1bff2824d93}, !- Default Day Schedule Name
  {53e2a393-d575-4f05-87a6-b1095747b803}, !- Summer Design Day Schedule Name
  {5e07dc01-63db-4831-b524-43b1bf256f19}; !- Winter Design Day Schedule Name

OS:ScheduleTypeLimits,
  {f0d36d5f-bec7-4166-89d2-de8a38a2b0f3}, !- Handle
  Dimensionless Schedule Type Limits,     !- Name
  ,                                       !- Lower Limit Value {BasedOnField A4}
  ,                                       !- Upper Limit Value {BasedOnField A4}
  Continuous,                             !- Numeric Type
  Dimensionless;                          !- Unit Type

OS:Schedule:Day,
  {c82147fc-0e62-481f-ac0d-e1bff2824d93}, !- Handle
  0800|1800|MidriseApartment|default|clothing |default, !- Name
  {f0d36d5f-bec7-4166-89d2-de8a38a2b0f3}, !- Schedule Type Limits Name
  ,                                       !- Interpolate to Timestep
  24,                                     !- Hour 1
  0,                                      !- Minute 1
  0.9;                                    !- Value Until Time 1

OS:Schedule:Day,
  {53e2a393-d575-4f05-87a6-b1095747b803}, !- Handle
  0800|1800|MidriseApartment|default|clothing Summer Design Day, !- Name
  {f0d36d5f-bec7-4166-89d2-de8a38a2b0f3}, !- Schedule Type Limits Name
  ,                                       !- Interpolate to Timestep
  24,                                     !- Hour 1
  0,                                      !- Minute 1
  0.9;                                    !- Value Until Time 1

OS:Schedule:Day,
  {5e07dc01-63db-4831-b524-43b1bf256f19}, !- Handle
  0800|1800|MidriseApartment|default|clothing Winter Design Day, !- Name
  {f0d36d5f-bec7-4166-89d2-de8a38a2b0f3}, !- Schedule Type Limits Name
  ,                                       !- Interpolate to Timestep
  24,                                     !- Hour 1
  0,                                      !- Minute 1
  0.9;                                    !- Value Until Time 1

OS:Schedule:Rule,
  {b0ec2d96-9ad0-4915-99fd-fe487100e538}, !- Handle
  0800|1800|MidriseApartment|default|clothing |7/1-9/30|Mon/Tue/Wed/Thu/Fri/Sat/Sun Rule, !- Name
  {5048ab25-fb03-4d35-943c-c380827edd6f}, !- Schedule Ruleset Name
  0,                                      !- Rule Order
  {2631719b-cf9a-425c-a1b8-f982cabac38c}, !- Day Schedule Name
  Yes,                                    !- Apply Sunday
  Yes,                                    !- Apply Monday
  Yes,                                    !- Apply Tuesday
  Yes,                                    !- Apply Wednesday
  Yes,                                    !- Apply Thursday
  Yes,                                    !- Apply Friday
  Yes,                                    !- Apply Saturday
  ,                                       !- Apply Holiday
  DateRange,                              !- Date Specification Type
  7,                                      !- Start Month
  1,                                      !- Start Day
  9,                                      !- End Month
  30;                                     !- End Day

OS:Schedule:Day,
  {2631719b-cf9a-425c-a1b8-f982cabac38c}, !- Handle
  0800|1800|MidriseApartment|default|clothing |7/1-9/30|Mon/Tue/Wed/Thu/Fri/Sat/Sun, !- Name
  {f0d36d5f-bec7-4166-89d2-de8a38a2b0f3}, !- Schedule Type Limits Name
  ,                                       !- Interpolate to Timestep
  24,                                     !- Hour 1
  0,                                      !- Minute 1
  0.7;                                    !- Value Until Time 1

OS:Schedule:Rule,
  {ccae2493-8180-4d23-9d8a-74541c1f0ca4}, !- Handle
  0800|1800|MidriseApartment|default|clothing |12/1-3/31|Mon/Tue/Wed/Thu/Fri/Sat/Sun Rule, !- Name
  {5048ab25-fb03-4d35-943c-c380827edd6f}, !- Schedule Ruleset Name
  1,                                      !- Rule Order
  {55e99caa-4ffd-4b4d-94a2-6ecabdaf9ecb}, !- Day Schedule Name
  Yes,                                    !- Apply Sunday
  Yes,                                    !- Apply Monday
  Yes,                                    !- Apply Tuesday
  Yes,                                    !- Apply Wednesday
  Yes,                                    !- Apply Thursday
  Yes,                                    !- Apply Friday
  Yes,                                    !- Apply Saturday
  ,                                       !- Apply Holiday
  DateRange,                              !- Date Specification Type
  12,                                     !- Start Month
  1,                                      !- Start Day
  3,                                      !- End Month
  31;                                     !- End Day

OS:Schedule:Day,
  {55e99caa-4ffd-4b4d-94a2-6ecabdaf9ecb}, !- Handle
  0800|1800|MidriseApartment|default|clothing |12/1-3/31|Mon/Tue/Wed/Thu/Fri/Sat/Sun, !- Name
  {f0d36d5f-bec7-4166-89d2-de8a38a2b0f3}, !- Schedule Type Limits Name
  ,                                       !- Interpolate to Timestep
  24,                                     !- Hour 1
  0,                                      !- Minute 1
  1.3;                                    !- Value Until Time 1

OS:Schedule:Ruleset,
  {11b4caba-8f8c-49f1-8a85-4ec9faf36d6b}, !- Handle
  0800|1800|MidriseApartment|Apartment|gas_equip, !- Name
  {b2c65b29-de83-46ca-99d6-06b049b1cca4}, !- Schedule Type Limits Name
  {88173b4b-9a87-49b1-a5c8-428aae72c6a8}, !- Default Day Schedule Name
  {8dab3737-5edd-4833-b3e3-9e42809d2160}, !- Summer Design Day Schedule Name
  {775b62cd-4026-43c9-aa68-fc36b9a3bb77}; !- Winter Design Day Schedule Name

OS:ScheduleTypeLimits,
  {b2c65b29-de83-46ca-99d6-06b049b1cca4}, !- Handle
  Equipment Schedule Type Limits,         !- Name
  0,                                      !- Lower Limit Value {BasedOnField A4}
  1,                                      !- Upper Limit Value {BasedOnField A4}
  Continuous,                             !- Numeric Type
  Dimensionless;                          !- Unit Type

OS:Schedule:Day,
  {88173b4b-9a87-49b1-a5c8-428aae72c6a8}, !- Handle
  0800|1800|MidriseApartment|Apartment|gas_equip |default, !- Name
  {b2c65b29-de83-46ca-99d6-06b049b1cca4}, !- Schedule Type Limits Name
  ,                                       !- Interpolate to Timestep
  1,                                      !- Hour 1
  0,                                      !- Minute 1
  0.45,                                   !- Value Until Time 1
  2,                                      !- Hour 2
  0,                                      !- Minute 2
  0.41,                                   !- Value Until Time 2
  3,                                      !- Hour 3
  0,                                      !- Minute 3
  0.39,                                   !- Value Until Time 3
  5,                                      !- Hour 4
  0,                                      !- Minute 4
  0.38,                                   !- Value Until Time 4
  6,                                      !- Hour 5
  0,                                      !- Minute 5
  0.43,                                   !- Value Until Time 5
  7,                                      !- Hour 6
  0,                                      !- Minute 6
  0.54,                                   !- Value Until Time 6
  8,                                      !- Hour 7
  0,                                      !- Minute 7
  0.65,                                   !- Value Until Time 7
  9,                                      !- Hour 8
  0,                                      !- Minute 8
  0.66,                                   !- Value Until Time 8
  10,                                     !- Hour 9
  0,                                      !- Minute 9
  0.67,                                   !- Value Until Time 9
  11,                                     !- Hour 10
  0,                                      !- Minute 10
  0.69,                                   !- Value Until Time 10
  12,                                     !- Hour 11
  0,                                      !- Minute 11
  0.7,                                    !- Value Until Time 11
  13,                                     !- Hour 12
  0,                                      !- Minute 12
  0.69,                                   !- Value Until Time 12
  14,                                     !- Hour 13
  0,                                      !- Minute 13
  0.66,                                   !- Value Until Time 13
  15,                                     !- Hour 14
  0,                                      !- Minute 14
  0.65,                                   !- Value Until Time 14
  16,                                     !- Hour 15
  0,                                      !- Minute 15
  0.68,                                   !- Value Until Time 15
  17,                                     !- Hour 16
  0,                                      !- Minute 16
  0.8,                                    !- Value Until Time 16
  19,                                     !- Hour 17
  0,                                      !- Minute 17
  1,                                      !- Value Until Time 17
  20,                                     !- Hour 18
  0,                                      !- Minute 18
  0.93,                                   !- Value Until Time 18
  21,                                     !- Hour 19
  0,                                      !- Minute 19
  0.89,                                   !- Value Until Time 19
  22,                                     !- Hour 20
  0,                                      !- Minute 20
  0.85,                                   !- Value Until Time 20
  23,                                     !- Hour 21
  0,                                      !- Minute 21
  0.71,                                   !- Value Until Time 21
  24,                                     !- Hour 22
  0,                                      !- Minute 22
  0.58;                                   !- Value Until Time 22

OS:Schedule:Day,
  {8dab3737-5edd-4833-b3e3-9e42809d2160}, !- Handle
  0800|1800|MidriseApartment|Apartment|gas_equip Summer Design Day, !- Name
  {b2c65b29-de83-46ca-99d6-06b049b1cca4}, !- Schedule Type Limits Name
  ,                                       !- Interpolate to Timestep
  24,                                     !- Hour 1
  0,                                      !- Minute 1
  1;                                      !- Value Until Time 1

OS:Schedule:Day,
  {775b62cd-4026-43c9-aa68-fc36b9a3bb77}, !- Handle
  0800|1800|MidriseApartment|Apartment|gas_equip Winter Design Day, !- Name
  {b2c65b29-de83-46ca-99d6-06b049b1cca4}, !- Schedule Type Limits Name
  ,                                       !- Interpolate to Timestep
  24,                                     !- Hour 1
  0,                                      !- Minute 1
  0.38;                                   !- Value Until Time 1

OS:Schedule:Ruleset,