
OS:Version,
  {4582cc8e-529f-4e3a-ad85-40a92831b799}, !- Handle
  1.5.5;                                  !- Version Identifier

OS:ClimateZones,
  {135edfab-17e7-40db-a436-27d385a8cd6d}, !- Handle
  ,                                       !- Active Institution
  ,                                       !- Active Year
  ASHRAE,                                 !- Climate Zone Institution Name 1
  ANSI/ASHRAE Standard 169,               !- Climate Zone Document Name 1
  2006,                                   !- Climate Zone Document Year 1
  ,                                       !- Climate Zone Value 1
  CEC,                                    !- Climate Zone Institution Name 2
  California Climate Zone Descriptions,   !- Climate Zone Document Name 2
  1995,                                   !- Climate Zone Document Year 2
  ;                                       !- Climate Zone Value 2

OS:YearDescription,
  {513d8dda-86cb-442a-b01c-1f7f0e0ac70e}; !- Handle

OS:RadianceParameters,
  {270a96f1-3c86-4b75-a667-cdf22790e2c8}, !- Handle
  1,                                      !- Accumulated Rays per Record
  0,                                      !- Direct Threshold
  1,                                      !- Direct Certainty
  1,                                      !- Direct Jitter
  1,                                      !- Direct Pretest
  6,                                      !- Ambient Bounces VMX
  2,                                      !- Ambient Bounces DMX
  4050,                                   !- Ambient Divisions VMX
  512,                                    !- Ambient Divisions DMX
  256,                                    !- Ambient Supersamples
  0.001,                                  !- Limit Weight VMX
  0.001,                                  !- Limit Weight DMX
  500,                                    !- Klems Sampling Density
  146;                                    !- Sky Discretization Resolution

OS:SimulationControl,
  {2c487a4c-bac9-4ac5-b669-1e49d9da7c2b}, !- Handle
  ,                                       !- Do Zone Sizing Calculation
  ,                                       !- Do System Sizing Calculation
  ,                                       !- Do Plant Sizing Calculation
  No,                                     !- Run Simulation for Sizing Periods
  ,                                       !- Run Simulation for Weather File Run Periods
  0.04,                                   !- Loads Convergence Tolerance Value
  ,                                       !- Temperature Convergence Tolerance Value {deltaC}
  ,                                       !- Solar Distribution
  ,                                       !- Maximum Number of Warmup Days
  2;                                      !- Minimum Number of Warmup Days

OS:Sizing:Parameters,
  {dde5af6f-7923-4600-a28a-7556673a0266}, !- Handle
  1.25,                                   !- Heating Sizing Factor
  1.15;                                   !- Cooling Sizing Factor

OS:ProgramControl,
  {05027a99-f2b3-4aeb-afc6-1425fbb4371d}; !- Handle

OS:Timestep,
  {4ebc9f1e-4707-402e-9844-67eb1ffbd522}, !- Handle
  2;                                      !- Number of Timesteps per Hour

OS:OutputControl:ReportingTolerances,
  {65797aa2-06a9-45fe-b69d-bc6e060399d3}; !- Handle

OS:ConvergenceLimits,
  {9fc11aba-8822-4f3d-970c-46391ba4040d}; !- Handle

OS:ShadowCalculation,
  {ca758bea-4416-4626-9bba-3d8795c79bd6}, !- Handle
  7,                                      !- Calculation Frequency
  15000;                                  !- Maximum Figures in Shadow Overlap Calculations

OS:SurfaceConvectionAlgorithm:Inside,
  {aaabfc36-718a-4ab0-b622-f186ebb45230}, !- Handle
  TARP;                                   !- Algorithm

OS:SurfaceConvectionAlgorithm:Outside,
  {9a0a9f6f-4bbd-4b12-a121-9492a1fcd7d6}, !- Handle
  DOE-2;                                  !- Algorithm

OS:HeatBalanceAlgorithm,
  {9d93e563-e1e0-46d7-9e39-d1c8aceb7212}, !- Handle
  ConductionTransferFunction,             !- Algorithm
  200;                                    !- Surface Temperature Upper Limit {F}

OS:ZoneAirHeatBalanceAlgorithm,
  {8520d93e-310f-4696-9bcd-36228bfdd743}, !- Handle
  AnalyticalSolution;                     !- Algorithm

OS:ZoneAirContaminantBalance,
  {eb5fc3ae-fb22-4160-8fcb-3e3b22b000d3}; !- Handle

OS:ZoneCapacitanceMultiplier:ResearchSpecial,
  {4020ce4f-5a7a-4849-8028-8305d7b751b1}, !- Handle
  ,                                       !- Temperature Capacity Multiplier
  ,                                       !- Humidity Capacity Multiplier
  ;                                       !- Carbon Dioxide Capacity Multiplier

OS:RunPeriod,
  {28df894d-6af9-4fb8-8f56-df1753344aa3}, !- Handle
  Run Period 1,                           !- Name
  1,                                      !- Begin Month
  1,                                      !- Begin Day of Month
  12,                                     !- End Month
  31,                                     !- End Day of Month
  ,                                       !- Use Weather File Holidays and Special Days
  ,                                       !- Use Weather File Daylight Saving Period
  ,                                       !- Apply Weekend Holiday Rule
  ,                                       !- Use Weather File Rain Indicators
  ,                                       !- Use Weather File Snow Indicators
  ;                                       !- Number of Times Runperiod to be Repeated

OS:Building,
  {bf305633-c5a1-4881-9edf-ca5e1a8e1274}, !- Handle
  Building 1,                             !- Name
  ,                                       !- Building Sector Type
  ,                                       !- North Axis {deg}
  ,                                       !- Nominal Floor to Floor Height {m}
  ,                                       !- Space Type Name
  ,                                       !- Default Construction Set Name
  {a28455d1-64a6-474d-9628-902a369141b1}, !- Default Schedule Set Name
  ,                                       !- Standards Number of Stories
  ,                                       !- Standards Number of Above Ground Stories
  MidriseApartment;                       !- Standards Building Type

OS:LifeCycleCost:Parameters,
  {231cf8a0-f0e7-4251-a99f-11f0d464e661}, !- Handle
  FEMP,                                   !- Analysis Type
  ,                                       !- Discounting Convention
  ,                                       !- Inflation Approach
  ,                                       !- Real Discount Rate
  ,                                       !- Nominal Discount Rate
  ,                                       !- Inflation
  ,                                       !- Base Date Month
  ,                                       !- Base Date Year
  ,                                       !- Service Date Month
  ,                                       !- Service Date Year
  ,                                       !- Length of Study Period in Years
  ,                                       !- Tax Rate
  ,                                       !- Depreciation Method
  Yes;                                    !- Use NIST Fuel Escalation Rates

OS:Facility,
  {3ba8e45b-b833-44eb-a723-ea6c3946dc96}; !- Handle

OS:SpaceType,
  {829ff622-868d-4d34-96fe-7f1609a1c719}, !- Handle
  MidriseApartment|BlendA|DOE Ref 1980-2004|ASHRAE 169-2006-5A, !- Name
  {c7561f93-352b-49f5-9283-35ebacc95aa6}, !- Default Construction Set Name
  ,                                       !- Default Schedule Set Name
  {602b23b5-2c0f-4806-918c-57efb353ff36}, !- Group Rendering Name
  {302c1e20-aa95-4a93-8be9-445034296eaf}, !- Design Specification Outdoor Air Object Name
  MidriseApartment,                       !- Standards Building Type
  BlendA;                                 !- Standards Space Type

OS:Rendering:Color,
  {602b23b5-2c0f-4806-918c-57efb353ff36}, !- Handle
  Rendering Color 1,                      !- Name
  78,                                     !- Rendering Red Value
  167,                                    !- Rendering Green Value
  222;                                    !- Rendering Blue Value

OS:SpaceType,
  {c0959cd8-e4b3-4387-a258-519e5ae8eeb8}, !- Handle
  MidriseApartment|Office|DOE Ref 1980-2004|ASHRAE 169-2006-5A, !- Name
  {c7561f93-352b-49f5-9283-35ebacc95aa6}, !- Default Construction Set Name
  {e260b0e2-1d1d-4514-91d3-6baf36737cfb}, !- Default Schedule Set Name
  {ca45c3dd-0912-4389-90cc-14488d7b5945}, !- Group Rendering Name
  {ac236c82-1d32-4613-ac71-810ab5ea90cf}, !- Design Specification Outdoor Air Object Name
  MidriseApartment,                       !- Standards Building Type
  Office;                                 !- Standards Space Type

OS:Rendering:Color,
  {ca45c3dd-0912-4389-90cc-14488d7b5945}, !- Handle
  Rendering Color 2,                      !- Name
  120,                                    !- Rendering Red Value
  230,                                    !- Rendering Green Value
  199;                                    !- Rendering Blue Value

OS:Schedule:Ruleset,
  {5685fc11-5877-456f-ad5e-b321bb13046c}, !- Handle
  0800|1800|MidriseApartment|default|hoo, !- Name
  {585f24d0-135b-43c4-b517-d3dd18c92769}, !- Schedule Type Limits Name
  {494b84c2-787b-4182-9d5c-8be992d9ed30}, !- Default Day Schedule Name
  {001e532e-a59d-49b0-a60e-2bbe908b58e6}, !- Summer Design Day Schedule Name
  {e58360f6-2841-407b-aa76-bb831cc950ea}; !- Winter Design Day Schedule Name

OS:Schedule:Day,
  {494b84c2-787b-4182-9d5c-8be992d9ed30}, !- Handle
  0800|1800|MidriseApartment|default|hoo Schedule Week Day, !- Name
  {585f24d0-135b-43c4-b517-d3dd18c92769}, !- Schedule Type Limits Name
  ,                                       !- Interpolate to Timestep
  8,                                      !- Hour 1
  0,                                      !- Minute 1
  0,                                      !- Value Until Time 1
  18,                                     !- Hour 2
  0,                                      !- Minute 2
  1,                                      !- Value Until Time 2
  24,                                     !- Hour 3
  0,                                      !- Minute 3
  0;                                      !- Value Until Time 3

OS:Schedule:Day,
  {da89237d-69bb-4c53-8bea-33b88aa498cd}, !- Handle
  Schedule Day 2,                         !- Name
  ,                                       !- Schedule Type Limits Name
  ,                                       !- Interpolate to Timestep
  24,                                     !- Hour 1
  0,                                      !- Minute 1
  0;                                      !- Value Until Time 1

OS:Schedule:Day,
  {e58360f6-2841-407b-aa76-bb831cc950ea}, !- Handle
  0800|1800|MidriseApartment|default|hoo Winter Design Day, !- Name
  {585f24d0-135b-43c4-b517-d3dd18c92769}, !- Schedule Type Limits Name
  ,                                       !- Interpolate to Timestep
  24,                                     !- Hour 1
  0,                                      !- Minute 1
  0;                                      !- Value Until Time 1

OS:Schedule:Day,
  {ce85d805-a6d9-4f3b-bf7a-f1a88226e93c}, !- Handle
  Schedule Day 3,                         !- Name
  ,                                       !- Schedule Type Limits Name
  ,                                       !- Interpolate to Timestep
  24,                                     !- Hour 1
  0,                                      !- Minute 1
  0;                                      !- Value Until Time 1

OS:Schedule:Day,
  {001e532e-a59d-49b0-a60e-2bbe908b58e6}, !- Handle
  0800|1800|MidriseApartment|default|hoo Summer Design Day, !- Name
  {585f24d0-135b-43c4-b517-d3dd18c92769}, !- Schedule Type Limits Name
  ,                                       !- Interpolate to Timestep
  24,                                     !- Hour 1
  0,                                      !- Minute 1
  1;                                      !- Value Until Time 1

OS:DefaultScheduleSet,
  {a28455d1-64a6-474d-9628-902a369141b1}, !- Handle
  Building Hours of Operation,            !- Name
  {5685fc11-5877-456f-ad5e-b321bb13046c}, !- Hours of Operation Schedule Name
  ,                                       !- Number of People Schedule Name
  ,                                       !- People Activity Level Schedule Name
  ,                                       !- Lighting Schedule Name
  ,                                       !- Electric Equipment Schedule Name
  ,                                       !- Gas Equipment Schedule Name
  ,                                       !- Hot Water Equipment Schedule Name
  ,                                       !- Infiltration Schedule Name
  ,                                       !- Steam Equipment Schedule Name
  ;                                       !- Other Equipment Schedule Name

OS:ScheduleTypeLimits,
  {585f24d0-135b-43c4-b517-d3dd18c92769}, !- Handle
  OnOff,                                  !- Name
  0,                                      !- Lower Limit Value {BasedOnField A4}
  1,                                      !- Upper Limit Value {BasedOnField A4}
  Discrete,                               !- Numeric Type
  Availability;                           !- Unit Type

OS:Schedule:Ruleset,
  {4d2067c2-4c75-420f-8b67-3d2232fc685e}, !- Handle
  0800|1800|MidriseApartment|xOffice|lighting, !- Name
  {024d8294-0ed1-4e42-8ba3-82fd591d4e25}, !- Schedule Type Limits Name
  {9b5d4570-6f4f-42ab-973f-093b0178a160}, !- Default Day Schedule Name
  {49cb67db-637e-4ef2-9be2-18d4b5e9c248}, !- Summer Design Day Schedule Name
  {3ecfad94-fd15-4abc-bd8f-f5dc0a19f27c}; !- Winter Design Day Schedule Name

OS:ScheduleTypeLimits,
  {024d8294-0ed1-4e42-8ba3-82fd591d4e25}, !- Handle
  Lights Schedule Type Limits,            !- Name
  0,                                      !- Lower Limit Value {BasedOnField A4}
  1,                                      !- Upper Limit Value {BasedOnField A4}
  Continuous,                             !- Numeric Type
  Dimensionless;                          !- Unit Type

OS:Schedule:Day,
  {9b5d4570-6f4f-42ab-973f-093b0178a160}, !- Handle
  0800|1800|MidriseApartment|xOffice|lighting |default, !- Name
  {024d8294-0ed1-4e42-8ba3-82fd591d4e25}, !- Schedule Type Limits Name
  ,                                       !- Interpolate to Timestep
  8,                                      !- Hour 1
  0,                                      !- Minute 1
  0.18,                                   !- Value Until Time 1
  12,                                     !- Hour 2
  0,                                      !- Minute 2
  0.9,                                    !- Value Until Time 2
  13,                                     !- Hour 3
  0,                                      !- Minute 3
  0.8,                                    !- Value Until Time 3
  17,                                     !- Hour 4
  0,                                      !- Minute 4
  0.9,                                    !- Value Until Time 4
  24,                                     !- Hour 5
  0,                                      !- Minute 5
  0.18;                                   !- Value Until Time 5

OS:Schedule:Day,
  {49cb67db-637e-4ef2-9be2-18d4b5e9c248}, !- Handle
  0800|1800|MidriseApartment|xOffice|lighting Summer Design Day, !- Name
  {024d8294-0ed1-4e42-8ba3-82fd591d4e25}, !- Schedule Type Limits Name
  ,                                       !- Interpolate to Timestep
  8,                                      !- Hour 1
  0,                                      !- Minute 1
  0.18,                                   !- Value Until Time 1
  17,                                     !- Hour 2
  0,                                      !- Minute 2
  1,                                      !- Value Until Time 2
  24,                                     !- Hour 3
  0,                                      !- Minute 3
  0.18;                                   !- Value Until Time 3

OS:Schedule:Day,
  {3ecfad94-fd15-4abc-bd8f-f5dc0a19f27c}, !- Handle
  0800|1800|MidriseApartment|xOffice|lighting Winter Design Day, !- Name
  {024d8294-0ed1-4e42-8ba3-82fd591d4e25}, !- Schedule Type Limits Name
  ,                                       !- Interpolate to Timestep
  24,                                     !- Hour 1
  0,                                      !- Minute 1
  0.18;                                   !- Value Until Time 1

OS:Schedule:Ruleset,
  {07f36fde-2ce2-44ae-87bd-c78441706d18}, !- Handle
  0800|1800|MidriseApartment|default|hw_loop_temp, !- Name
  {4fbb0ade-0de7-4450-8d42-cc8fbc405d08}, !- Schedule Type Limits Name
  {2a73094b-5cf1-4f9a-aa2a-09ebc6f7b17b}, !- Default Day Schedule Name
  {7f94af3f-48b6-4e7f-9820-69f0da7732b8}, !- Summer Design Day Schedule Name
  {396b7770-cbf2-4238-9a2d-fabd6ccc725b}; !- Winter Design Day Schedule Name

OS:ScheduleTypeLimits,
  {4fbb0ade-0de7-4450-8d42-cc8fbc405d08}, !- Handle
  Temperature Schedule Type Limits,       !- Name
  ,                                       !- Lower Limit Value {BasedOnField A4}
  ,                                       !- Upper Limit Value {BasedOnField A4}
  Continuous,                             !- Numeric Type
  Temperature;                            !- Unit Type

OS:Schedule:Day,
  {2a73094b-5cf1-4f9a-aa2a-09ebc6f7b17b}, !- Handle
  0800|1800|MidriseApartment|default|hw_loop_temp |default, !- Name
  {4fbb0ade-0de7-4450-8d42-cc8fbc405d08}, !- Schedule Type Limits Name
  ,                                       !- Interpolate to Timestep
  24,                                     !- Hour 1
  0,                                      !- Minute 1
  60.0000000000001;                       !- Value Until Time 1

OS:Schedule:Day,
  {7f94af3f-48b6-4e7f-9820-69f0da7732b8}, !- Handle
  0800|1800|MidriseApartment|default|hw_loop_temp Summer Design Day, !- Name
  {4fbb0ade-0de7-4450-8d42-cc8fbc405d08}, !- Schedule Type Limits Name
  ,                                       !- Interpolate to Timestep
  24,                                     !- Hour 1
  0,                                      !- Minute 1
  60.0000000000001;                       !- Value Until Time 1

OS:Schedule:Day,
  {396b7770-cbf2-4238-9a2d-fabd6ccc725b}, !- Handle
  0800|1800|MidriseApartment|default|hw_loop_temp Winter Design Day, !- Name
  {4fbb0ade-0de7-4450-8d42-cc8fbc405d08}, !- Schedule Type Limits Name
  ,                                       !- Interpolate to Timestep
  24,                                     !- Hour 1
  0,                                      !- Minute 1
  60.0000000000001;                       !- Value Until Time 1

OS:Schedule:Ruleset,
  {0e624645-d4e5-4713-8e9f-062ad59b80de}, !- Handle
  0800|1800|MidriseApartment|default|ext_lighting, !- Name
  {024d8294-0ed1-4e42-8ba3-82fd591d4e25}, !- Schedule Type Limits Name
  {c7684119-7718-4475-adbb-ace6b85cb9c7}, !- Default Day Schedule Name
  {ceebd63f-a63a-4f34-907a-b599b0457739}, !- Summer Design Day Schedule Name
  {cc6051e3-380a-4f34-9bbc-cf901e601bde}; !- Winter Design Day Schedule Name

OS:Schedule:Day,
  {c7684119-7718-4475-adbb-ace6b85cb9c7}, !- Handle
  0800|1800|MidriseApartment|default|ext_lighting |default, !- Name
  {024d8294-0ed1-4e42-8ba3-82fd591d4e25}, !- Schedule Type Limits Name
  ,                                       !- Interpolate to Timestep
  24,                                     !- Hour 1
  0,                                      !- Minute 1
  1;                                      !- Value Until Time 1

OS:Schedule:Day,
  {ceebd63f-a63a-4f34-907a-b599b0457739}, !- Handle
  0800|1800|MidriseApartment|default|ext_lighting Summer Design Day, !- Name
  {024d8294-0ed1-4e42-8ba3-82fd591d4e25}, !- Schedule Type Limits Name
  ,                                       !- Interpolate to Timestep
  24,                                     !- Hour 1
  0,                                      !- Minute 1
  1;                                      !- Value Until Time 1

OS:Schedule:Day,
  {cc6051e3-380a-4f34-9bbc-cf901e601bde}, !- Handle
  0800|1800|MidriseApartment|default|ext_lighting Winter Design Day, !- Name
  {024d8294-0ed1-4e42-8ba3-82fd591d4e25}, !- Schedule Type Limits Name
  ,                                       !- Interpolate to Timestep
  24,                                     !- Hour 1
  0,                                      !- Minute 1
  1;                                      !- Value Until Time 1

OS:Schedule:Ruleset,
  {b9bf38dd-212d-4b97-9216-4a86b539007f}, !- Handle
  0800|1800|MidriseApartment|Apartment|hvac, !- Name
  {66600f06-3a5f-4368-84b0-dcea6a557448}, !- Schedule Type Limits Name
  {522c7763-4aae-430f-a61a-ec0f1bf33619}, !- Default Day Schedule Name
  {767e0bec-30d5-4fe8-9a99-37b33a04b6df}, !- Summer Design Day Schedule Name
  {794ae32f-0559-4d6e-8998-e3a4f6dc15b8}; !- Winter Design Day Schedule Name

OS:ScheduleTypeLimits,
  {66600f06-3a5f-4368-84b0-dcea6a557448}, !- Handle
  HVAC Operation Schedule Type Limits,    !- Name
  0,                                      !- Lower Limit Value {BasedOnField A4}
  1,                                      !- Upper Limit Value {BasedOnField A4}
  Discrete,                               !- Numeric Type
  Availability;                           !- Unit Type

OS:Schedule:Day,
  {522c7763-4aae-430f-a61a-ec0f1bf33619}, !- Handle
  0800|1800|MidriseApartment|Apartment|hvac |default, !- Name
  {66600f06-3a5f-4368-84b0-dcea6a557448}, !- Schedule Type Limits Name
  ,                                       !- Interpolate to Timestep
  24,                                     !- Hour 1
  0,                                      !- Minute 1
  1;                                      !- Value Until Time 1

OS:Schedule:Day,
  {767e0bec-30d5-4fe8-9a99-37b33a04b6df}, !- Handle
  0800|1800|MidriseApartment|Apartment|hvac Summer Design Day, !- Name
  {66600f06-3a5f-4368-84b0-dcea6a557448}, !- Schedule Type Limits Name
  ,                                       !- Interpolate to Timestep
  24,                                     !- Hour 1
  0,                                      !- Minute 1
  1;                                      !- Value Until Time 1

OS:Schedule:Day,
  {794ae32f-0559-4d6e-8998-e3a4f6dc15b8}, !- Handle
  0800|1800|MidriseApartment|Apartment|hvac Winter Design Day, !- Name
  {66600f06-3a5f-4368-84b0-dcea6a557448}, !- Schedule Type Limits Name
  ,                                       !- Interpolate to Timestep
  24,                                     !- Hour 1
  0,                                      !- Minute 1
  1;                                      !- Value Until Time 1

OS:Schedule:Ruleset,
  {97b0e201-af8f-442a-9218-776708cc92c0}, !- Handle
  0800|1800|MidriseApartment|default|htg_setpoint, !- Name
  {791e3d55-ea91-4cca-93ce-2ffc9841f690}, !- Schedule Type Limits Name
  {218714a5-5e40-4200-b226-cd0133d3a2f7}, !- Default Day Schedule Name
  {0c231ab3-0a60-468b-8dd8-8f52f2ffb5d5}, !- Summer Design Day Schedule Name
  {1305d791-07b3-4991-a0dd-e97cfb0b0ee9}; !- Winter Design Day Schedule Name

OS:ScheduleTypeLimits,
  {791e3d55-ea91-4cca-93ce-2ffc9841f690}, !- Handle
  Thermostat Heating Setpoint Schedule Type Limits, !- Name
  0,                                      !- Lower Limit Value {BasedOnField A4}
  100,                                    !- Upper Limit Value {BasedOnField A4}
  Continuous,                             !- Numeric Type
  Temperature;                            !- Unit Type

OS:Schedule:Day,
  {218714a5-5e40-4200-b226-cd0133d3a2f7}, !- Handle
  0800|1800|MidriseApartment|default|htg_setpoint |default, !- Name
  {791e3d55-ea91-4cca-93ce-2ffc9841f690}, !- Schedule Type Limits Name
  ,                                       !- Interpolate to Timestep
  24,                                     !- Hour 1
  0,                                      !- Minute 1
  21.1111111111111;                       !- Value Until Time 1

OS:Schedule:Day,
  {0c231ab3-0a60-468b-8dd8-8f52f2ffb5d5}, !- Handle
  0800|1800|MidriseApartment|default|htg_setpoint Summer Design Day, !- Name
  {791e3d55-ea91-4cca-93ce-2ffc9841f690}, !- Schedule Type Limits Name
  ,                                       !- Interpolate to Timestep
  24,                                     !- Hour 1
  0,                                      !- Minute 1
  21.1111111111111;                       !- Value Until Time 1

OS:Schedule:Day,
  {1305d791-07b3-4991-a0dd-e97cfb0b0ee9}, !- Handle
  0800|1800|MidriseApartment|default|htg_setpoint Winter Design Day, !- Name
  {791e3d55-ea91-4cca-93ce-2ffc9841f690}, !- Schedule Type Limits Name
  ,                                       !- Interpolate to Timestep
  24,                                     !- Hour 1
  0,                                      !- Minute 1
  21.1111111111111;                       !- Value Until Time 1

OS:Schedule:Ruleset,
  {ce6d46d2-79b4-4faa-81f8-95e781ee2316}, !- Handle
  0800|1800|MidriseApartment|default|activity, !- Name
  {bfb8302b-debd-4db0-a0cd-94675ae2f601}, !- Schedule Type Limits Name
  {1a4febe3-81b6-4ed8-bfbd-6853386f1a8a}, !- Default Day Schedule Name
  {a2fdfa7f-2762-4ce4-88fd-6abb29e2643f}, !- Summer Design Day Schedule Name
  {ed49e130-9707-46a8-8bc9-b4ae90f903ff}; !- Winter Design Day Schedule Name

OS:ScheduleTypeLimits,
  {bfb8302b-debd-4db0-a0cd-94675ae2f601}, !- Handle
  People Activity Type Limits,            !- Name
  0,                                      !- Lower Limit Value {BasedOnField A4}
  ,                                       !- Upper Limit Value {BasedOnField A4}
  Continuous,                             !- Numeric Type
  ActivityLevel;                          !- Unit Type

OS:Schedule:Day,
  {1a4febe3-81b6-4ed8-bfbd-6853386f1a8a}, !- Handle
  0800|1800|MidriseApartment|default|activity |default, !- Name
  {bfb8302b-debd-4db0-a0cd-94675ae2f601}, !- Schedule Type Limits Name
  ,                                       !- Interpolate to Timestep
  24,                                     !- Hour 1
  0,                                      !- Minute 1
  120;                                    !- Value Until Time 1

OS:Schedule:Day,
  {a2fdfa7f-2762-4ce4-88fd-6abb29e2643f}, !- Handle
  0800|1800|MidriseApartment|default|activity Summer Design Day, !- Name
  {bfb8302b-debd-4db0-a0cd-94675ae2f601}, !- Schedule Type Limits Name
  ,                                       !- Interpolate to Timestep
  24,                                     !- Hour 1
  0,                                      !- Minute 1
  120;                                    !- Value Until Time 1

OS:Schedule:Day,
  {ed49e130-9707-46a8-8bc9-b4ae90f903ff}, !- Handle
  0800|1800|MidriseApartment|default|activity Winter Design Day, !- Name
  {bfb8302b-debd-4db0-a0cd-94675ae2f601}, !- Schedule Type Limits Name
  ,                                       !- Interpolate to Timestep
  24,                                     !- Hour 1
  0,                                      !- Minute 1
  120;                                    !- Value Until Time 1

OS:Schedule:Ruleset,
  {c1ac2892-9e8d-449d-b84e-6d740bc2daec}, !- Handle
  0800|1800|MidriseApartment|Office|occ,  !- Name
  {239fa1f9-eb79-4afa-83c6-2baf928c1454}, !- Schedule Type Limits Name
  {205c9561-8c36-4bf4-afe5-1b37331efee7}, !- Default Day Schedule Name
  {ccaa65c3-20c4-42e3-87cd-ef8aecbdecdb}, !- Summer Design Day Schedule Name
  {c9f834c0-063b-4477-aa21-0e9c72242d95}; !- Winter Design Day Schedule Name

OS:ScheduleTypeLimits,
  {239fa1f9-eb79-4afa-83c6-2baf928c1454}, !- Handle
  Occupancy Schedule Type Limits,         !- Name
  0,                                      !- Lower Limit Value {BasedOnField A4}
  1,                                      !- Upper Limit Value {BasedOnField A4}
  Continuous,                             !- Numeric Type
  Dimensionless;                          !- Unit Type

OS:Schedule:Day,
  {205c9561-8c36-4bf4-afe5-1b37331efee7}, !- Handle
  0800|1800|MidriseApartment|Office|occ |default, !- Name
  {239fa1f9-eb79-4afa-83c6-2baf928c1454}, !- Schedule Type Limits Name
  ,                                       !- Interpolate to Timestep
  8,                                      !- Hour 1
  0,                                      !- Minute 1
  0,                                      !- Value Until Time 1
  9,                                      !- Hour 2
  0,                                      !- Minute 2
  0.87,                                   !- Value Until Time 2
  9,                                      !- Hour 3
  30,                                     !- Minute 3
  0.54,                                   !- Value Until Time 3
  10,                                     !- Hour 4
  0,                                      !- Minute 4
  0.34,                                   !- Value Until Time 4
  11,                                     !- Hour 5
  0,                                      !- Minute 5
  0.87,                                   !- Value Until Time 5
  11,                                     !- Hour 6
  30,                                     !- Minute 6
  0.54,                                   !- Value Until Time 6
  12,                                     !- Hour 7
  0,                                      !- Minute 7
  0.34,                                   !- Value Until Time 7
  12,                                     !- Hour 8
  30,                                     !- Minute 8
  0.76,                                   !- Value Until Time 8
  13,                                     !- Hour 9
  0,                                      !- Minute 9
  0.91,                                   !- Value Until Time 9
  15,                                     !- Hour 10
  30,                                     !- Minute 10
  0.95,                                   !- Value Until Time 10
  16,                                     !- Hour 11