
OS:Version,
  {c3f71e56-d3b0-411f-9f29-a95b7f021913}, !- Handle
  1.6.0;                                  !- Version Identifier

OS:ClimateZones,
  {135edfab-17e7-40db-a436-27d385a8cd6d}, !- Handle
  ,                                       !- Active Institution
  ,                                       !- Active Year
  ASHRAE,                                 !- Climate Zone Institution Name 1
  ANSI/ASHRAE Standard 169,               !- Climate Zone Document Name 1
  2006,                                   !- Climate Zone Document Year 1
  ,                                       !- Climate Zone Value 1
  CEC,                                    !- Climate Zone Institution Name 2
  California Climate Zone Descriptions,   !- Climate Zone Document Name 2
  1995,                                   !- Climate Zone Document Year 2
  ;                                       !- Climate Zone Value 2

OS:YearDescription,
  {513d8dda-86cb-442a-b01c-1f7f0e0ac70e}; !- Handle

OS:RadianceParameters,
  {270a96f1-3c86-4b75-a667-cdf22790e2c8}, !- Handle
  1,                                      !- Accumulated Rays per Record
  0,                                      !- Direct Threshold
  1,                                      !- Direct Certainty
  1,                                      !- Direct Jitter
  1,                                      !- Direct Pretest
  6,                                      !- Ambient Bounces VMX
  2,                                      !- Ambient Bounces DMX
  4050,                                   !- Ambient Divisions VMX
  512,                                    !- Ambient Divisions DMX
  256,                                    !- Ambient Supersamples
  0.001,                                  !- Limit Weight VMX
  0.001,                                  !- Limit Weight DMX
  500,                                    !- Klems Sampling Density
  146;                                    !- Sky Discretization Resolution

OS:SimulationControl,
  {2c487a4c-bac9-4ac5-b669-1e49d9da7c2b}, !- Handle
  ,                                       !- Do Zone Sizing Calculation
  ,                                       !- Do System Sizing Calculation
  ,                                       !- Do Plant Sizing Calculation
  No,                                     !- Run Simulation for Sizing Periods
  ,                                       !- Run Simulation for Weather File Run Periods
  0.04,                                   !- Loads Convergence Tolerance Value
  ,                                       !- Temperature Convergence Tolerance Value {deltaC}
  ,                                       !- Solar Distribution
  ,                                       !- Maximum Number of Warmup Days
  2;                                      !- Minimum Number of Warmup Days

OS:Sizing:Parameters,
  {dde5af6f-7923-4600-a28a-7556673a0266}, !- Handle
  1.25,                                   !- Heating Sizing Factor
  1.15;                                   !- Cooling Sizing Factor

OS:ProgramControl,
  {05027a99-f2b3-4aeb-afc6-1425fbb4371d}; !- Handle

OS:Timestep,
  {4ebc9f1e-4707-402e-9844-67eb1ffbd522}, !- Handle
  2;                                      !- Number of Timesteps per Hour

OS:OutputControl:ReportingTolerances,
  {65797aa2-06a9-45fe-b69d-bc6e060399d3}; !- Handle

OS:ConvergenceLimits,
  {9fc11aba-8822-4f3d-970c-46391ba4040d}; !- Handle

OS:ShadowCalculation,
  {ca758bea-4416-4626-9bba-3d8795c79bd6}, !- Handle
  7,                                      !- Calculation Frequency
  15000;                                  !- Maximum Figures in Shadow Overlap Calculations

OS:SurfaceConvectionAlgorithm:Inside,
  {aaabfc36-718a-4ab0-b622-f186ebb45230}, !- Handle
  TARP;                                   !- Algorithm

OS:SurfaceConvectionAlgorithm:Outside,
  {9a0a9f6f-4bbd-4b12-a121-9492a1fcd7d6}, !- Handle
  DOE-2;                                  !- Algorithm

OS:HeatBalanceAlgorithm,
  {9d93e563-e1e0-46d7-9e39-d1c8aceb7212}, !- Handle
  ConductionTransferFunction,             !- Algorithm
  200;                                    !- Surface Temperature Upper Limit {F}

OS:ZoneAirHeatBalanceAlgorithm,
  {8520d93e-310f-4696-9bcd-36228bfdd743}, !- Handle
  AnalyticalSolution;                     !- Algorithm

OS:ZoneAirContaminantBalance,
  {eb5fc3ae-fb22-4160-8fcb-3e3b22b000d3}; !- Handle

OS:ZoneCapacitanceMultiplier:ResearchSpecial,
  {4020ce4f-5a7a-4849-8028-8305d7b751b1}, !- Handle
  ,                                       !- Temperature Capacity Multiplier
  ,                                       !- Humidity Capacity Multiplier
  ;                                       !- Carbon Dioxide Capacity Multiplier

OS:RunPeriod,
  {28df894d-6af9-4fb8-8f56-df1753344aa3}, !- Handle
  Run Period 1,                           !- Name
  1,                                      !- Begin Month
  1,                                      !- Begin Day of Month
  12,                                     !- End Month
  31,                                     !- End Day of Month
  ,                                       !- Use Weather File Holidays and Special Days
  ,                                       !- Use Weather File Daylight Saving Period
  ,                                       !- Apply Weekend Holiday Rule
  ,                                       !- Use Weather File Rain Indicators
  ,                                       !- Use Weather File Snow Indicators
  ;                                       !- Number of Times Runperiod to be Repeated

OS:Building,
  {bf305633-c5a1-4881-9edf-ca5e1a8e1274}, !- Handle
  Building 1,                             !- Name
  ,                                       !- Building Sector Type
  ,                                       !- North Axis {deg}
  ,                                       !- Nominal Floor to Floor Height {m}
  ,                                       !- Space Type Name
  ,                                       !- Default Construction Set Name
  {4d6c837d-981c-41c3-a2d1-5f0a3efec0a9}, !- Default Schedule Set Name
  ,                                       !- Standards Number of Stories
  ,                                       !- Standards Number of Above Ground Stories
  MidriseApartment;                       !- Standards Building Type

OS:LifeCycleCost:Parameters,
  {231cf8a0-f0e7-4251-a99f-11f0d464e661}, !- Handle
  FEMP,                                   !- Analysis Type
  ,                                       !- Discounting Convention
  ,                                       !- Inflation Approach
  ,                                       !- Real Discount Rate
  ,                                       !- Nominal Discount Rate
  ,                                       !- Inflation
  ,                                       !- Base Date Month
  ,                                       !- Base Date Year
  ,                                       !- Service Date Month
  ,                                       !- Service Date Year
  ,                                       !- Length of Study Period in Years
  ,                                       !- Tax Rate
  ,                                       !- Depreciation Method
  Yes;                                    !- Use NIST Fuel Escalation Rates

OS:Facility,
  {3ba8e45b-b833-44eb-a723-ea6c3946dc96}; !- Handle

OS:SpaceType,
  {d04ff425-b12c-47cb-81b4-9dafc508e279}, !- Handle
  MidriseApartment|BlendA|DOE Ref 1980-2004|ASHRAE 169-2006-5A, !- Name
  {f77a537b-596a-42f6-ab2c-1953fca9770d}, !- Default Construction Set Name
  ,                                       !- Default Schedule Set Name
  {6273a532-f5ca-4160-9c2d-ac52eb577069}, !- Group Rendering Name
  {33db69e7-4dd5-42fd-b84b-46f4fea75c21}, !- Design Specification Outdoor Air Object Name
  MidriseApartment,                       !- Standards Building Type
  BlendA;                                 !- Standards Space Type

OS:Rendering:Color,
  {6273a532-f5ca-4160-9c2d-ac52eb577069}, !- Handle
  Rendering Color 1,                      !- Name
  78,                                     !- Rendering Red Value
  167,                                    !- Rendering Green Value
  222;                                    !- Rendering Blue Value

OS:SpaceType,
  {e698d52a-a856-4d36-9d10-70913fd881dc}, !- Handle
  MidriseApartment|Office|DOE Ref 1980-2004|ASHRAE 169-2006-5A, !- Name
  {f77a537b-596a-42f6-ab2c-1953fca9770d}, !- Default Construction Set Name
  {90d8ceb9-4f28-43cd-a8fc-9f3e66be3204}, !- Default Schedule Set Name
  {6eebfa5a-5c72-426b-bb93-71a878f92acb}, !- Group Rendering Name
  {356a963c-0b72-4465-a29c-17f8c57b1bcf}, !- Design Specification Outdoor Air Object Name
  MidriseApartment,                       !- Standards Building Type
  Office;                                 !- Standards Space Type

OS:Rendering:Color,
  {6eebfa5a-5c72-426b-bb93-71a878f92acb}, !- Handle
  Rendering Color 2,                      !- Name
  120,                                    !- Rendering Red Value
  230,                                    !- Rendering Green Value
  199;                                    !- Rendering Blue Value

OS:Schedule:Ruleset,
  {71ddb300-6f49-4d4b-badf-b0af742626af}, !- Handle
  0800|1800|MidriseApartment|default|hoo, !- Name
  {0f50465d-7a66-498a-a7ed-392bb9b1ca14}, !- Schedule Type Limits Name
  {38fb83a5-c84b-4c66-8e39-103949d2475f}, !- Default Day Schedule Name
  {03e201f8-83fd-4ebe-a7cc-05a2c5806506}, !- Summer Design Day Schedule Name
  {968e5df1-0c67-4a8c-8746-00040ca6ac70}; !- Winter Design Day Schedule Name

OS:Schedule:Day,
  {38fb83a5-c84b-4c66-8e39-103949d2475f}, !- Handle
  0800|1800|MidriseApartment|default|hoo Schedule Week Day, !- Name
  {0f50465d-7a66-498a-a7ed-392bb9b1ca14}, !- Schedule Type Limits Name
  ,                                       !- Interpolate to Timestep
  8,                                      !- Hour 1
  0,                                      !- Minute 1
  0,                                      !- Value Until Time 1
  18,                                     !- Hour 2
  0,                                      !- Minute 2
  1,                                      !- Value Until Time 2
  24,                                     !- Hour 3
  0,                                      !- Minute 3
  0;                                      !- Value Until Time 3

OS:Schedule:Day,
  {3de3cc9f-b2e7-4f94-bf8a-d835fffddbbc}, !- Handle
  Schedule Day 2,                         !- Name
  ,                                       !- Schedule Type Limits Name
  ,                                       !- Interpolate to Timestep
  24,                                     !- Hour 1
  0,                                      !- Minute 1
  0;                                      !- Value Until Time 1

OS:Schedule:Day,
  {968e5df1-0c67-4a8c-8746-00040ca6ac70}, !- Handle
  0800|1800|MidriseApartment|default|hoo Winter Design Day, !- Name
  {0f50465d-7a66-498a-a7ed-392bb9b1ca14}, !- Schedule Type Limits Name
  ,                                       !- Interpolate to Timestep
  24,                                     !- Hour 1
  0,                                      !- Minute 1
  0;                                      !- Value Until Time 1

OS:Schedule:Day,
  {696e4aaf-2618-4d60-92bd-c71c9b3bf58d}, !- Handle
  Schedule Day 3,                         !- Name
  ,                                       !- Schedule Type Limits Name
  ,                                       !- Interpolate to Timestep
  24,                                     !- Hour 1
  0,                                      !- Minute 1
  0;                                      !- Value Until Time 1

OS:Schedule:Day,
  {03e201f8-83fd-4ebe-a7cc-05a2c5806506}, !- Handle
  0800|1800|MidriseApartment|default|hoo Summer Design Day, !- Name
  {0f50465d-7a66-498a-a7ed-392bb9b1ca14}, !- Schedule Type Limits Name
  ,                                       !- Interpolate to Timestep
  24,                                     !- Hour 1
  0,                                      !- Minute 1
  1;                                      !- Value Until Time 1

OS:DefaultScheduleSet,
  {4d6c837d-981c-41c3-a2d1-5f0a3efec0a9}, !- Handle
  Building Hours of Operation,            !- Name
  {71ddb300-6f49-4d4b-badf-b0af742626af}, !- Hours of Operation Schedule Name
  ,                                       !- Number of People Schedule Name
  ,                                       !- People Activity Level Schedule Name
  ,                                       !- Lighting Schedule Name
  ,                                       !- Electric Equipment Schedule Name
  ,                                       !- Gas Equipment Schedule Name
  ,                                       !- Hot Water Equipment Schedule Name
  ,                                       !- Infiltration Schedule Name
  ,                                       !- Steam Equipment Schedule Name
  ;                                       !- Other Equipment Schedule Name

OS:ScheduleTypeLimits,
  {0f50465d-7a66-498a-a7ed-392bb9b1ca14}, !- Handle
  OnOff,                                  !- Name
  0,                                      !- Lower Limit Value {BasedOnField A4}
  1,                                      !- Upper Limit Value {BasedOnField A4}
  Discrete,                               !- Numeric Type
  Availability;                           !- Unit Type

OS:Schedule:Ruleset,
  {c6847ad2-a28f-4f49-9ebd-9c906fec8725}, !- Handle
  0800|1800|MidriseApartment|default|hw_loop_temp, !- Name
  {88a2a370-2e70-49ab-b5ba-5b1a0a4c9cd9}, !- Schedule Type Limits Name
  {e49f487a-00a1-455d-8a43-ea5ff16ee38f}, !- Default Day Schedule Name
  {7fb22a5b-950a-4fe6-a37d-a017459abce2}, !- Summer Design Day Schedule Name
  {694b68bc-c3e6-40c0-8b6c-4d98f49b7210}; !- Winter Design Day Schedule Name

OS:ScheduleTypeLimits,
  {88a2a370-2e70-49ab-b5ba-5b1a0a4c9cd9}, !- Handle
  Temperature Schedule Type Limits,       !- Name
  ,                                       !- Lower Limit Value {BasedOnField A4}
  ,                                       !- Upper Limit Value {BasedOnField A4}
  Continuous,                             !- Numeric Type
  Temperature;                            !- Unit Type

OS:Schedule:Day,
  {e49f487a-00a1-455d-8a43-ea5ff16ee38f}, !- Handle
  0800|1800|MidriseApartment|default|hw_loop_temp |default, !- Name
  {88a2a370-2e70-49ab-b5ba-5b1a0a4c9cd9}, !- Schedule Type Limits Name
  ,                                       !- Interpolate to Timestep
  24,                                     !- Hour 1
  0,                                      !- Minute 1
  60.0000000000001;                       !- Value Until Time 1

OS:Schedule:Day,
  {7fb22a5b-950a-4fe6-a37d-a017459abce2}, !- Handle
  0800|1800|MidriseApartment|default|hw_loop_temp Summer Design Day, !- Name
  {88a2a370-2e70-49ab-b5ba-5b1a0a4c9cd9}, !- Schedule Type Limits Name
  ,                                       !- Interpolate to Timestep
  24,                                     !- Hour 1
  0,                                      !- Minute 1
  60.0000000000001;                       !- Value Until Time 1

OS:Schedule:Day,
  {694b68bc-c3e6-40c0-8b6c-4d98f49b7210}, !- Handle
  0800|1800|MidriseApartment|default|hw_loop_temp Winter Design Day, !- Name
  {88a2a370-2e70-49ab-b5ba-5b1a0a4c9cd9}, !- Schedule Type Limits Name
  ,                                       !- Interpolate to Timestep
  24,                                     !- Hour 1
  0,                                      !- Minute 1
  60.0000000000001;                       !- Value Until Time 1

OS:Schedule:Ruleset,
  {8cfd7efe-578e-4e15-b959-c59444319fb8}, !- Handle
  0800|1800|MidriseApartment|Office|infiltration, !- Name
  {6fa9b52f-96d8-4735-8b6c-96419d49c44a}, !- Schedule Type Limits Name
  {84deca69-b61f-4d63-a9e6-717b354b10f1}, !- Default Day Schedule Name
  {9546e398-bf43-4fd6-93bc-29e0dcd12571}, !- Summer Design Day Schedule Name
  {b95b28ce-7806-41a8-b809-3b344c30e917}; !- Winter Design Day Schedule Name

OS:ScheduleTypeLimits,
  {6fa9b52f-96d8-4735-8b6c-96419d49c44a}, !- Handle
  Fraction Schedule Type Limits,          !- Name
  0,                                      !- Lower Limit Value {BasedOnField A4}
  1,                                      !- Upper Limit Value {BasedOnField A4}
  Continuous,                             !- Numeric Type
  Dimensionless;                          !- Unit Type

OS:Schedule:Day,
  {84deca69-b61f-4d63-a9e6-717b354b10f1}, !- Handle
  0800|1800|MidriseApartment|Office|infiltration |default, !- Name
  {6fa9b52f-96d8-4735-8b6c-96419d49c44a}, !- Schedule Type Limits Name
  ,                                       !- Interpolate to Timestep
  8,                                      !- Hour 1
  0,                                      !- Minute 1
  1,                                      !- Value Until Time 1
  17,                                     !- Hour 2
  0,                                      !- Minute 2
  0.25,                                   !- Value Until Time 2
  24,                                     !- Hour 3
  0,                                      !- Minute 3
  1;                                      !- Value Until Time 3

OS:Schedule:Day,
  {9546e398-bf43-4fd6-93bc-29e0dcd12571}, !- Handle
  0800|1800|MidriseApartment|Office|infiltration Summer Design Day, !- Name
  {6fa9b52f-96d8-4735-8b6c-96419d49c44a}, !- Schedule Type Limits Name
  ,                                       !- Interpolate to Timestep
  8,                                      !- Hour 1
  0,                                      !- Minute 1
  1,                                      !- Value Until Time 1
  17,                                     !- Hour 2
  0,                                      !- Minute 2
  0.25,                                   !- Value Until Time 2
  24,                                     !- Hour 3
  0,                                      !- Minute 3
  1;                                      !- Value Until Time 3

OS:Schedule:Day,
  {b95b28ce-7806-41a8-b809-3b344c30e917}, !- Handle
  0800|1800|MidriseApartment|Office|infiltration Winter Design Day, !- Name
  {6fa9b52f-96d8-4735-8b6c-96419d49c44a}, !- Schedule Type Limits Name
  ,                                       !- Interpolate to Timestep
  8,                                      !- Hour 1
  0,                                      !- Minute 1
  1,                                      !- Value Until Time 1
  17,                                     !- Hour 2
  0,                                      !- Minute 2
  0.25,                                   !- Value Until Time 2
  24,                                     !- Hour 3
  0,                                      !- Minute 3
  1;                                      !- Value Until Time 3

OS:Schedule:Ruleset,
  {6d360d6e-52b2-4fa0-8264-f01d60217f86}, !- Handle
  0800|1800|MidriseApartment|default|clothing, !- Name
  {59f86716-3aca-493e-bb0a-9a3c02406f60}, !- Schedule Type Limits Name
  {4a4731ac-1397-45ca-a52a-30b3e9c5c467}, !- Default Day Schedule Name
  {f29ed278-79a1-4a5a-bdf8-62b4274f528c}, !- Summer Design Day Schedule Name
  {298ab0e9-6c29-470a-988b-d7eddc266899}; !- Winter Design Day Schedule Name

OS:ScheduleTypeLimits,
  {59f86716-3aca-493e-bb0a-9a3c02406f60}, !- Handle
  Dimensionless Schedule Type Limits,     !- Name
  ,                                       !- Lower Limit Value {BasedOnField A4}
  ,                                       !- Upper Limit Value {BasedOnField A4}
  Continuous,                             !- Numeric Type
  Dimensionless;                          !- Unit Type

OS:Schedule:Day,
  {4a4731ac-1397-45ca-a52a-30b3e9c5c467}, !- Handle
  0800|1800|MidriseApartment|default|clothing |default, !- Name
  {59f86716-3aca-493e-bb0a-9a3c02406f60}, !- Schedule Type Limits Name
  ,                                       !- Interpolate to Timestep
  24,                                     !- Hour 1
  0,                                      !- Minute 1
  0.9;                                    !- Value Until Time 1

OS:Schedule:Day,
  {f29ed278-79a1-4a5a-bdf8-62b4274f528c}, !- Handle
  0800|1800|MidriseApartment|default|clothing Summer Design Day, !- Name
  {59f86716-3aca-493e-bb0a-9a3c02406f60}, !- Schedule Type Limits Name
  ,                                       !- Interpolate to Timestep
  24,                                     !- Hour 1
  0,                                      !- Minute 1
  0.9;                                    !- Value Until Time 1

OS:Schedule:Day,
  {298ab0e9-6c29-470a-988b-d7eddc266899}, !- Handle
  0800|1800|MidriseApartment|default|clothing Winter Design Day, !- Name
  {59f86716-3aca-493e-bb0a-9a3c02406f60}, !- Schedule Type Limits Name
  ,                                       !- Interpolate to Timestep
  24,                                     !- Hour 1
  0,                                      !- Minute 1
  0.9;                                    !- Value Until Time 1

OS:Schedule:Rule,
  {420f1688-a35e-4d00-b133-6a3af95b1642}, !- Handle
  0800|1800|MidriseApartment|default|clothing |7/1-9/30|Mon/Tue/Wed/Thu/Fri/Sat/Sun Rule, !- Name
  {6d360d6e-52b2-4fa0-8264-f01d60217f86}, !- Schedule Ruleset Name
  0,                                      !- Rule Order
  {d962c116-041c-42f4-8cc7-238421ca696a}, !- Day Schedule Name
  Yes,                                    !- Apply Sunday
  Yes,                                    !- Apply Monday
  Yes,                                    !- Apply Tuesday
  Yes,                                    !- Apply Wednesday
  Yes,                                    !- Apply Thursday
  Yes,                                    !- Apply Friday
  Yes,                                    !- Apply Saturday
  ,                                       !- Apply Holiday
  DateRange,                              !- Date Specification Type
  7,                                      !- Start Month
  1,                                      !- Start Day
  9,                                      !- End Month
  30;                                     !- End Day

OS:Schedule:Day,
  {d962c116-041c-42f4-8cc7-238421ca696a}, !- Handle
  0800|1800|MidriseApartment|default|clothing |7/1-9/30|Mon/Tue/Wed/Thu/Fri/Sat/Sun, !- Name
  {59f86716-3aca-493e-bb0a-9a3c02406f60}, !- Schedule Type Limits Name
  ,                                       !- Interpolate to Timestep
  24,                                     !- Hour 1
  0,                                      !- Minute 1
  0.7;                                    !- Value Until Time 1

OS:Schedule:Rule,
  {41d9c7bf-ee04-4fdc-9303-66898b8f66ed}, !- Handle
  0800|1800|MidriseApartment|default|clothing |12/1-3/31|Mon/Tue/Wed/Thu/Fri/Sat/Sun Rule, !- Name
  {6d360d6e-52b2-4fa0-8264-f01d60217f86}, !- Schedule Ruleset Name
  1,                                      !- Rule Order
  {ed14600a-fe23-41ae-9177-a87d7f497c11}, !- Day Schedule Name
  Yes,                                    !- Apply Sunday
  Yes,                                    !- Apply Monday
  Yes,                                    !- Apply Tuesday
  Yes,                                    !- Apply Wednesday
  Yes,                                    !- Apply Thursday
  Yes,                                    !- Apply Friday
  Yes,                                    !- Apply Saturday
  ,                                       !- Apply Holiday
  DateRange,                              !- Date Specification Type
  12,                                     !- Start Month
  1,                                      !- Start Day
  3,                                      !- End Month
  31;                                     !- End Day

OS:Schedule:Day,
  {ed14600a-fe23-41ae-9177-a87d7f497c11}, !- Handle
  0800|1800|MidriseApartment|default|clothing |12/1-3/31|Mon/Tue/Wed/Thu/Fri/Sat/Sun, !- Name
  {59f86716-3aca-493e-bb0a-9a3c02406f60}, !- Schedule Type Limits Name
  ,                                       !- Interpolate to Timestep
  24,                                     !- Hour 1
  0,                                      !- Minute 1
  1.3;                                    !- Value Until Time 1

OS:Schedule:Ruleset,
  {be78ea12-6719-4671-b741-3db56c6f5f12}, !- Handle
  0800|1800|MidriseApartment|Apartment|gas_equip, !- Name
  {aa55327e-2d85-43ff-aa41-1f30afc54947}, !- Schedule Type Limits Name
  {e7eda3c9-8021-4dd3-93b7-5f8b71d5449b}, !- Default Day Schedule Name
  {d804b252-fde2-452d-ad88-70ff585312aa}, !- Summer Design Day Schedule Name
  {8816903a-3e8f-40e6-b40b-97e1931eab9c}; !- Winter Design Day Schedule Name

OS:ScheduleTypeLimits,
  {aa55327e-2d85-43ff-aa41-1f30afc54947}, !- Handle
  Equipment Schedule Type Limits,         !- Name
  0,                                      !- Lower Limit Value {BasedOnField A4}
  1,                                      !- Upper Limit Value {BasedOnField A4}
  Continuous,                             !- Numeric Type
  Dimensionless;                          !- Unit Type

OS:Schedule:Day,
  {e7eda3c9-8021-4dd3-93b7-5f8b71d5449b}, !- Handle
  0800|1800|MidriseApartment|Apartment|gas_equip |default, !- Name
  {aa55327e-2d85-43ff-aa41-1f30afc54947}, !- Schedule Type Limits Name
  ,                                       !- Interpolate to Timestep
  1,                                      !- Hour 1
  0,                                      !- Minute 1
  0.45,                                   !- Value Until Time 1
  2,                                      !- Hour 2
  0,                                      !- Minute 2
  0.41,                                   !- Value Until Time 2
  3,                                      !- Hour 3
  0,                                      !- Minute 3
  0.39,                                   !- Value Until Time 3
  5,                                      !- Hour 4
  0,                                      !- Minute 4
  0.38,                                   !- Value Until Time 4
  6,                                      !- Hour 5
  0,                                      !- Minute 5
  0.43,                                   !- Value Until Time 5
  7,                                      !- Hour 6
  0,                                      !- Minute 6
  0.54,                                   !- Value Until Time 6
  8,                                      !- Hour 7
  0,                                      !- Minute 7
  0.65,                                   !- Value Until Time 7
  9,                                      !- Hour 8
  0,                                      !- Minute 8
  0.66,                                   !- Value Until Time 8
  10,                                     !- Hour 9
  0,                                      !- Minute 9
  0.67,                                   !- Value Until Time 9
  11,                                     !- Hour 10
  0,                                      !- Minute 10
  0.69,                                   !- Value Until Time 10
  12,                                     !- Hour 11
  0,                                      !- Minute 11
  0.7,                                    !- Value Until Time 11
  13,                                     !- Hour 12
  0,                                      !- Minute 12
  0.69,                                   !- Value Until Time 12
  14,                                     !- Hour 13
  0,                                      !- Minute 13
  0.66,                                   !- Value Until Time 13
  15,                                     !- Hour 14
  0,                                      !- Minute 14
  0.65,                                   !- Value Until Time 14
  16,                                     !- Hour 15
  0,                                      !- Minute 15
  0.68,                                   !- Value Until Time 15
  17,                                     !- Hour 16
  0,                                      !- Minute 16
  0.8,                                    !- Value Until Time 16
  19,                                     !- Hour 17
  0,                                      !- Minute 17
  1,                                      !- Value Until Time 17
  20,                                     !- Hour 18
  0,                                      !- Minute 18
  0.93,                                   !- Value Until Time 18
  21,                                     !- Hour 19
  0,                                      !- Minute 19
  0.89,                                   !- Value Until Time 19
  22,                                     !- Hour 20
  0,                                      !- Minute 20
  0.85,                                   !- Value Until Time 20
  23,                                     !- Hour 21
  0,                                      !- Minute 21
  0.71,                                   !- Value Until Time 21
  24,                                     !- Hour 22
  0,                                      !- Minute 22
  0.58;                                   !- Value Until Time 22

OS:Schedule:Day,
  {d804b252-fde2-452d-ad88-70ff585312aa}, !- Handle
  0800|1800|MidriseApartment|Apartment|gas_equip Summer Design Day, !- Name
  {aa55327e-2d85-43ff-aa41-1f30afc54947}, !- Schedule Type Limits Name
  ,                                       !- Interpolate to Timestep
  24,                                     !- Hour 1
  0,                                      !- Minute 1
  1;                                      !- Value Until Time 1

OS:Schedule:Day,
  {8816903a-3e8f-40e6-b40b-97e1931eab9c}, !- Handle
  0800|1800|MidriseApartment|Apartment|gas_equip Winter Design Day, !- Name
  {aa55327e-2d85-43ff-aa41-1f30afc54947}, !- Schedule Type Limits Name
  ,                                       !- Interpolate to Timestep
  24,                                     !- Hour 1
  0,                                      !- Minute 1
  0.38;                                   !- Value Until Time 1

OS:Schedule:Ruleset,