
OS:Version,
  {0d51581b-32f1-475e-a64f-1a6a2605bd0e}, !- Handle
  1.5.5;                                  !- Version Identifier

OS:ClimateZones,
  {135edfab-17e7-40db-a436-27d385a8cd6d}, !- Handle
  ,                                       !- Active Institution
  ,                                       !- Active Year
  ASHRAE,                                 !- Climate Zone Institution Name 1
  ANSI/ASHRAE Standard 169,               !- Climate Zone Document Name 1
  2006,                                   !- Climate Zone Document Year 1
  ,                                       !- Climate Zone Value 1
  CEC,                                    !- Climate Zone Institution Name 2
  California Climate Zone Descriptions,   !- Climate Zone Document Name 2
  1995,                                   !- Climate Zone Document Year 2
  ;                                       !- Climate Zone Value 2

OS:YearDescription,
  {513d8dda-86cb-442a-b01c-1f7f0e0ac70e}; !- Handle

OS:RadianceParameters,
  {270a96f1-3c86-4b75-a667-cdf22790e2c8}, !- Handle
  1,                                      !- Accumulated Rays per Record
  0,                                      !- Direct Threshold
  1,                                      !- Direct Certainty
  1,                                      !- Direct Jitter
  1,                                      !- Direct Pretest
  6,                                      !- Ambient Bounces VMX
  2,                                      !- Ambient Bounces DMX
  4050,                                   !- Ambient Divisions VMX
  512,                                    !- Ambient Divisions DMX
  256,                                    !- Ambient Supersamples
  0.001,                                  !- Limit Weight VMX
  0.001,                                  !- Limit Weight DMX
  500,                                    !- Klems Sampling Density
  146;                                    !- Sky Discretization Resolution

OS:SimulationControl,
  {2c487a4c-bac9-4ac5-b669-1e49d9da7c2b}, !- Handle
  ,                                       !- Do Zone Sizing Calculation
  ,                                       !- Do System Sizing Calculation
  ,                                       !- Do Plant Sizing Calculation
  No,                                     !- Run Simulation for Sizing Periods
  ,                                       !- Run Simulation for Weather File Run Periods
  0.04,                                   !- Loads Convergence Tolerance Value
  ,                                       !- Temperature Convergence Tolerance Value {deltaC}
  ,                                       !- Solar Distribution
  ,                                       !- Maximum Number of Warmup Days
  2;                                      !- Minimum Number of Warmup Days

OS:Sizing:Parameters,
  {dde5af6f-7923-4600-a28a-7556673a0266}, !- Handle
  1.25,                                   !- Heating Sizing Factor
  1.15;                                   !- Cooling Sizing Factor

OS:ProgramControl,
  {05027a99-f2b3-4aeb-afc6-1425fbb4371d}; !- Handle

OS:Timestep,
  {4ebc9f1e-4707-402e-9844-67eb1ffbd522}, !- Handle
  2;                                      !- Number of Timesteps per Hour

OS:OutputControl:ReportingTolerances,
  {65797aa2-06a9-45fe-b69d-bc6e060399d3}; !- Handle

OS:ConvergenceLimits,
  {9fc11aba-8822-4f3d-970c-46391ba4040d}; !- Handle

OS:ShadowCalculation,
  {ca758bea-4416-4626-9bba-3d8795c79bd6}, !- Handle
  7,                                      !- Calculation Frequency
  15000;                                  !- Maximum Figures in Shadow Overlap Calculations

OS:SurfaceConvectionAlgorithm:Inside,
  {aaabfc36-718a-4ab0-b622-f186ebb45230}, !- Handle
  TARP;                                   !- Algorithm

OS:SurfaceConvectionAlgorithm:Outside,
  {9a0a9f6f-4bbd-4b12-a121-9492a1fcd7d6}, !- Handle
  DOE-2;                                  !- Algorithm

OS:HeatBalanceAlgorithm,
  {9d93e563-e1e0-46d7-9e39-d1c8aceb7212}, !- Handle
  ConductionTransferFunction,             !- Algorithm
  200;                                    !- Surface Temperature Upper Limit {F}

OS:ZoneAirHeatBalanceAlgorithm,
  {8520d93e-310f-4696-9bcd-36228bfdd743}, !- Handle
  AnalyticalSolution;                     !- Algorithm

OS:ZoneAirContaminantBalance,
  {eb5fc3ae-fb22-4160-8fcb-3e3b22b000d3}; !- Handle

OS:ZoneCapacitanceMultiplier:ResearchSpecial,
  {4020ce4f-5a7a-4849-8028-8305d7b751b1}, !- Handle
  ,                                       !- Temperature Capacity Multiplier
  ,                                       !- Humidity Capacity Multiplier
  ;                                       !- Carbon Dioxide Capacity Multiplier

OS:RunPeriod,
  {28df894d-6af9-4fb8-8f56-df1753344aa3}, !- Handle
  Run Period 1,                           !- Name
  1,                                      !- Begin Month
  1,                                      !- Begin Day of Month
  12,                                     !- End Month
  31,                                     !- End Day of Month
  ,                                       !- Use Weather File Holidays and Special Days
  ,                                       !- Use Weather File Daylight Saving Period
  ,                                       !- Apply Weekend Holiday Rule
  ,                                       !- Use Weather File Rain Indicators
  ,                                       !- Use Weather File Snow Indicators
  ;                                       !- Number of Times Runperiod to be Repeated

OS:Building,
  {bf305633-c5a1-4881-9edf-ca5e1a8e1274}, !- Handle
  Building 1,                             !- Name
  ,                                       !- Building Sector Type
  ,                                       !- North Axis {deg}
  ,                                       !- Nominal Floor to Floor Height {m}
  ,                                       !- Space Type Name
  ,                                       !- Default Construction Set Name
  {dffd33f5-d0ad-435c-948a-becfd74a644c}, !- Default Schedule Set Name
  ,                                       !- Standards Number of Stories
  ,                                       !- Standards Number of Above Ground Stories
  MidriseApartment;                       !- Standards Building Type

OS:LifeCycleCost:Parameters,
  {231cf8a0-f0e7-4251-a99f-11f0d464e661}, !- Handle
  FEMP,                                   !- Analysis Type
  ,                                       !- Discounting Convention
  ,                                       !- Inflation Approach
  ,                                       !- Real Discount Rate
  ,                                       !- Nominal Discount Rate
  ,                                       !- Inflation
  ,                                       !- Base Date Month
  ,                                       !- Base Date Year
  ,                                       !- Service Date Month
  ,                                       !- Service Date Year
  ,                                       !- Length of Study Period in Years
  ,                                       !- Tax Rate
  ,                                       !- Depreciation Method
  Yes;                                    !- Use NIST Fuel Escalation Rates

OS:Facility,
  {3ba8e45b-b833-44eb-a723-ea6c3946dc96}; !- Handle

OS:SpaceType,
  {ce6db982-367f-41a2-ac4d-b662db7196e2}, !- Handle
  MidriseApartment|BlendA|DOE Ref 2004|ASHRAE 169-2006-5A, !- Name
  {84f21a17-bcb6-4e55-b821-096917d89454}, !- Default Construction Set Name
  ,                                       !- Default Schedule Set Name
  {a21932d5-8bed-4bc2-a6d3-3dd2f20e3b64}, !- Group Rendering Name
  {811bf63d-df51-4705-bfa4-4a34339029c6}, !- Design Specification Outdoor Air Object Name
  MidriseApartment,                       !- Standards Building Type
  BlendA;                                 !- Standards Space Type

OS:Rendering:Color,
  {a21932d5-8bed-4bc2-a6d3-3dd2f20e3b64}, !- Handle
  Rendering Color 1,                      !- Name
  78,                                     !- Rendering Red Value
  167,                                    !- Rendering Green Value
  222;                                    !- Rendering Blue Value

OS:SpaceType,
  {37f9c2ab-82bd-4097-903c-86f2b0034fbd}, !- Handle
  MidriseApartment|Office|DOE Ref 2004|ASHRAE 169-2006-5A, !- Name
  {84f21a17-bcb6-4e55-b821-096917d89454}, !- Default Construction Set Name
  {2f9df98e-c01c-4d77-b56a-c5af6b4cb721}, !- Default Schedule Set Name
  {b552a08c-f9ea-4565-88bc-84f197dfbd05}, !- Group Rendering Name
  {ce1384d6-cb95-4af4-852c-16d338f39ca1}, !- Design Specification Outdoor Air Object Name
  MidriseApartment,                       !- Standards Building Type
  Office;                                 !- Standards Space Type

OS:Rendering:Color,
  {b552a08c-f9ea-4565-88bc-84f197dfbd05}, !- Handle
  Rendering Color 2,                      !- Name
  120,                                    !- Rendering Red Value
  230,                                    !- Rendering Green Value
  199;                                    !- Rendering Blue Value

OS:Schedule:Ruleset,
  {5f229804-b568-41a7-9a0e-95e757c134fc}, !- Handle
  0800|1800|MidriseApartment|default|hoo, !- Name
  {64972982-be58-4315-9c7e-4be35f581c8d}, !- Schedule Type Limits Name
  {1429b934-7866-4d84-b277-047452113d58}, !- Default Day Schedule Name
  {d5dd7ce7-9cb1-48e3-bada-a869569729ee}, !- Summer Design Day Schedule Name
  {6d6c4eb2-c813-4032-8e28-b541050824f6}; !- Winter Design Day Schedule Name

OS:Schedule:Day,
  {1429b934-7866-4d84-b277-047452113d58}, !- Handle
  0800|1800|MidriseApartment|default|hoo Schedule Week Day, !- Name
  {64972982-be58-4315-9c7e-4be35f581c8d}, !- Schedule Type Limits Name
  ,                                       !- Interpolate to Timestep
  8,                                      !- Hour 1
  0,                                      !- Minute 1
  0,                                      !- Value Until Time 1
  18,                                     !- Hour 2
  0,                                      !- Minute 2
  1,                                      !- Value Until Time 2
  24,                                     !- Hour 3
  0,                                      !- Minute 3
  0;                                      !- Value Until Time 3

OS:Schedule:Day,
  {6c78231d-c213-40b5-9d0d-b6a59de0fcec}, !- Handle
  Schedule Day 2,                         !- Name
  ,                                       !- Schedule Type Limits Name
  ,                                       !- Interpolate to Timestep
  24,                                     !- Hour 1
  0,                                      !- Minute 1
  0;                                      !- Value Until Time 1

OS:Schedule:Day,
  {6d6c4eb2-c813-4032-8e28-b541050824f6}, !- Handle
  0800|1800|MidriseApartment|default|hoo Winter Design Day, !- Name
  {64972982-be58-4315-9c7e-4be35f581c8d}, !- Schedule Type Limits Name
  ,                                       !- Interpolate to Timestep
  24,                                     !- Hour 1
  0,                                      !- Minute 1
  0;                                      !- Value Until Time 1

OS:Schedule:Day,
  {6e47dc7f-ef8f-4b5b-9437-e25c665d83c1}, !- Handle
  Schedule Day 3,                         !- Name
  ,                                       !- Schedule Type Limits Name
  ,                                       !- Interpolate to Timestep
  24,                                     !- Hour 1
  0,                                      !- Minute 1
  0;                                      !- Value Until Time 1

OS:Schedule:Day,
  {d5dd7ce7-9cb1-48e3-bada-a869569729ee}, !- Handle
  0800|1800|MidriseApartment|default|hoo Summer Design Day, !- Name
  {64972982-be58-4315-9c7e-4be35f581c8d}, !- Schedule Type Limits Name
  ,                                       !- Interpolate to Timestep
  24,                                     !- Hour 1
  0,                                      !- Minute 1
  1;                                      !- Value Until Time 1

OS:DefaultScheduleSet,
  {dffd33f5-d0ad-435c-948a-becfd74a644c}, !- Handle
  Building Hours of Operation,            !- Name
  {5f229804-b568-41a7-9a0e-95e757c134fc}, !- Hours of Operation Schedule Name
  ,                                       !- Number of People Schedule Name
  ,                                       !- People Activity Level Schedule Name
  ,                                       !- Lighting Schedule Name
  ,                                       !- Electric Equipment Schedule Name
  ,                                       !- Gas Equipment Schedule Name
  ,                                       !- Hot Water Equipment Schedule Name
  ,                                       !- Infiltration Schedule Name
  ,                                       !- Steam Equipment Schedule Name
  ;                                       !- Other Equipment Schedule Name

OS:ScheduleTypeLimits,
  {64972982-be58-4315-9c7e-4be35f581c8d}, !- Handle
  OnOff,                                  !- Name
  0,                                      !- Lower Limit Value {BasedOnField A4}
  1,                                      !- Upper Limit Value {BasedOnField A4}
  Discrete,                               !- Numeric Type
  Availability;                           !- Unit Type

OS:Schedule:Ruleset,
  {1431251d-1c3f-4b4a-a107-7aae5f82337a}, !- Handle
  0800|1800|MidriseApartment|xOffice|lighting, !- Name
  {7f1c28cb-3ea2-4c6e-b4e3-d604189a9e20}, !- Schedule Type Limits Name
  {ec11f29d-127d-4231-b01b-31f028590789}, !- Default Day Schedule Name
  {de90cbda-c7ad-4342-a315-5f81ebe78f40}, !- Summer Design Day Schedule Name
  {eb835f65-aedc-454c-a940-56a5a96d00b4}; !- Winter Design Day Schedule Name

OS:ScheduleTypeLimits,
  {7f1c28cb-3ea2-4c6e-b4e3-d604189a9e20}, !- Handle
  Lights Schedule Type Limits,            !- Name
  0,                                      !- Lower Limit Value {BasedOnField A4}
  1,                                      !- Upper Limit Value {BasedOnField A4}
  Continuous,                             !- Numeric Type
  Dimensionless;                          !- Unit Type

OS:Schedule:Day,
  {ec11f29d-127d-4231-b01b-31f028590789}, !- Handle
  0800|1800|MidriseApartment|xOffice|lighting |default, !- Name
  {7f1c28cb-3ea2-4c6e-b4e3-d604189a9e20}, !- Schedule Type Limits Name
  ,                                       !- Interpolate to Timestep
  8,                                      !- Hour 1
  0,                                      !- Minute 1
  0.18,                                   !- Value Until Time 1
  12,                                     !- Hour 2
  0,                                      !- Minute 2
  0.9,                                    !- Value Until Time 2
  13,                                     !- Hour 3
  0,                                      !- Minute 3
  0.8,                                    !- Value Until Time 3
  17,                                     !- Hour 4
  0,                                      !- Minute 4
  0.9,                                    !- Value Until Time 4
  24,                                     !- Hour 5
  0,                                      !- Minute 5
  0.18;                                   !- Value Until Time 5

OS:Schedule:Day,
  {de90cbda-c7ad-4342-a315-5f81ebe78f40}, !- Handle
  0800|1800|MidriseApartment|xOffice|lighting Summer Design Day, !- Name
  {7f1c28cb-3ea2-4c6e-b4e3-d604189a9e20}, !- Schedule Type Limits Name
  ,                                       !- Interpolate to Timestep
  8,                                      !- Hour 1
  0,                                      !- Minute 1
  0.18,                                   !- Value Until Time 1
  17,                                     !- Hour 2
  0,                                      !- Minute 2
  1,                                      !- Value Until Time 2
  24,                                     !- Hour 3
  0,                                      !- Minute 3
  0.18;                                   !- Value Until Time 3

OS:Schedule:Day,
  {eb835f65-aedc-454c-a940-56a5a96d00b4}, !- Handle
  0800|1800|MidriseApartment|xOffice|lighting Winter Design Day, !- Name
  {7f1c28cb-3ea2-4c6e-b4e3-d604189a9e20}, !- Schedule Type Limits Name
  ,                                       !- Interpolate to Timestep
  24,                                     !- Hour 1
  0,                                      !- Minute 1
  0.18;                                   !- Value Until Time 1

OS:Schedule:Ruleset,
  {2fa0f278-5aa3-40e9-8c4c-e7a339c36407}, !- Handle
  0800|1800|MidriseApartment|default|hw_loop_temp, !- Name
  {e7aa3f96-a705-46f9-a207-ce00070ae4d8}, !- Schedule Type Limits Name
  {ea144305-8ffc-48e1-9914-a23194fc586a}, !- Default Day Schedule Name
  {7b60a924-6333-4512-b486-31a8ca1f8dfd}, !- Summer Design Day Schedule Name
  {33fe40ee-7780-40f8-9751-d93d9211911a}; !- Winter Design Day Schedule Name

OS:ScheduleTypeLimits,
  {e7aa3f96-a705-46f9-a207-ce00070ae4d8}, !- Handle
  Temperature Schedule Type Limits,       !- Name
  ,                                       !- Lower Limit Value {BasedOnField A4}
  ,                                       !- Upper Limit Value {BasedOnField A4}
  Continuous,                             !- Numeric Type
  Temperature;                            !- Unit Type

OS:Schedule:Day,
  {ea144305-8ffc-48e1-9914-a23194fc586a}, !- Handle
  0800|1800|MidriseApartment|default|hw_loop_temp |default, !- Name
  {e7aa3f96-a705-46f9-a207-ce00070ae4d8}, !- Schedule Type Limits Name
  ,                                       !- Interpolate to Timestep
  24,                                     !- Hour 1
  0,                                      !- Minute 1
  60.0000000000001;                       !- Value Until Time 1

OS:Schedule:Day,
  {7b60a924-6333-4512-b486-31a8ca1f8dfd}, !- Handle
  0800|1800|MidriseApartment|default|hw_loop_temp Summer Design Day, !- Name
  {e7aa3f96-a705-46f9-a207-ce00070ae4d8}, !- Schedule Type Limits Name
  ,                                       !- Interpolate to Timestep
  24,                                     !- Hour 1
  0,                                      !- Minute 1
  60.0000000000001;                       !- Value Until Time 1

OS:Schedule:Day,
  {33fe40ee-7780-40f8-9751-d93d9211911a}, !- Handle
  0800|1800|MidriseApartment|default|hw_loop_temp Winter Design Day, !- Name
  {e7aa3f96-a705-46f9-a207-ce00070ae4d8}, !- Schedule Type Limits Name
  ,                                       !- Interpolate to Timestep
  24,                                     !- Hour 1
  0,                                      !- Minute 1
  60.0000000000001;                       !- Value Until Time 1

OS:Schedule:Ruleset,
  {e025f577-8b24-4447-bccc-c826c4a766be}, !- Handle
  0800|1800|MidriseApartment|default|ext_lighting, !- Name
  {7f1c28cb-3ea2-4c6e-b4e3-d604189a9e20}, !- Schedule Type Limits Name
  {611b2966-731d-4247-bf86-2f6d579f649a}, !- Default Day Schedule Name
  {b002fcb2-e6f0-4d45-8a1a-e22e8794d217}, !- Summer Design Day Schedule Name
  {23b36e05-fa85-47a6-a826-e1fb669f80c5}; !- Winter Design Day Schedule Name

OS:Schedule:Day,
  {611b2966-731d-4247-bf86-2f6d579f649a}, !- Handle
  0800|1800|MidriseApartment|default|ext_lighting |default, !- Name
  {7f1c28cb-3ea2-4c6e-b4e3-d604189a9e20}, !- Schedule Type Limits Name
  ,                                       !- Interpolate to Timestep
  24,                                     !- Hour 1
  0,                                      !- Minute 1
  1;                                      !- Value Until Time 1

OS:Schedule:Day,
  {b002fcb2-e6f0-4d45-8a1a-e22e8794d217}, !- Handle
  0800|1800|MidriseApartment|default|ext_lighting Summer Design Day, !- Name
  {7f1c28cb-3ea2-4c6e-b4e3-d604189a9e20}, !- Schedule Type Limits Name
  ,                                       !- Interpolate to Timestep
  24,                                     !- Hour 1
  0,                                      !- Minute 1
  1;                                      !- Value Until Time 1

OS:Schedule:Day,
  {23b36e05-fa85-47a6-a826-e1fb669f80c5}, !- Handle
  0800|1800|MidriseApartment|default|ext_lighting Winter Design Day, !- Name
  {7f1c28cb-3ea2-4c6e-b4e3-d604189a9e20}, !- Schedule Type Limits Name
  ,                                       !- Interpolate to Timestep
  24,                                     !- Hour 1
  0,                                      !- Minute 1
  1;                                      !- Value Until Time 1

OS:Schedule:Ruleset,
  {cd82cfa5-31b7-4d11-a095-0c7c7523ec3e}, !- Handle
  0800|1800|MidriseApartment|Apartment|hvac, !- Name
  {6c35bba9-3d80-47b4-9369-424953b34225}, !- Schedule Type Limits Name
  {744860f4-2d78-4e4d-8232-7f9f467f14c1}, !- Default Day Schedule Name
  {68b071d9-631a-46fc-a0ec-ec3f9d621104}, !- Summer Design Day Schedule Name
  {f1a0d951-aa6d-4033-b64c-187f8dceaa7d}; !- Winter Design Day Schedule Name

OS:ScheduleTypeLimits,
  {6c35bba9-3d80-47b4-9369-424953b34225}, !- Handle
  HVAC Operation Schedule Type Limits,    !- Name
  0,                                      !- Lower Limit Value {BasedOnField A4}
  1,                                      !- Upper Limit Value {BasedOnField A4}
  Discrete,                               !- Numeric Type
  Availability;                           !- Unit Type

OS:Schedule:Day,
  {744860f4-2d78-4e4d-8232-7f9f467f14c1}, !- Handle
  0800|1800|MidriseApartment|Apartment|hvac |default, !- Name
  {6c35bba9-3d80-47b4-9369-424953b34225}, !- Schedule Type Limits Name
  ,                                       !- Interpolate to Timestep
  24,                                     !- Hour 1
  0,                                      !- Minute 1
  1;                                      !- Value Until Time 1

OS:Schedule:Day,
  {68b071d9-631a-46fc-a0ec-ec3f9d621104}, !- Handle
  0800|1800|MidriseApartment|Apartment|hvac Summer Design Day, !- Name
  {6c35bba9-3d80-47b4-9369-424953b34225}, !- Schedule Type Limits Name
  ,                                       !- Interpolate to Timestep
  24,                                     !- Hour 1
  0,                                      !- Minute 1
  1;                                      !- Value Until Time 1

OS:Schedule:Day,
  {f1a0d951-aa6d-4033-b64c-187f8dceaa7d}, !- Handle
  0800|1800|MidriseApartment|Apartment|hvac Winter Design Day, !- Name
  {6c35bba9-3d80-47b4-9369-424953b34225}, !- Schedule Type Limits Name
  ,                                       !- Interpolate to Timestep
  24,                                     !- Hour 1
  0,                                      !- Minute 1
  1;                                      !- Value Until Time 1

OS:Schedule:Ruleset,
  {104f0895-3a5d-4ca3-aeb8-016c3ffcd03b}, !- Handle
  0800|1800|MidriseApartment|default|htg_setpoint, !- Name
  {bad5f4ea-596e-4a18-9444-06ebffc46f91}, !- Schedule Type Limits Name
  {1b00a33b-c49c-4129-9451-362e9a351226}, !- Default Day Schedule Name
  {9530f77e-a836-4b1a-871e-f7d74bc02675}, !- Summer Design Day Schedule Name
  {9e9fc72a-8036-4d8d-a007-665f8454ab8b}; !- Winter Design Day Schedule Name

OS:ScheduleTypeLimits,
  {bad5f4ea-596e-4a18-9444-06ebffc46f91}, !- Handle
  Thermostat Heating Setpoint Schedule Type Limits, !- Name
  0,                                      !- Lower Limit Value {BasedOnField A4}
  100,                                    !- Upper Limit Value {BasedOnField A4}
  Continuous,                             !- Numeric Type
  Temperature;                            !- Unit Type

OS:Schedule:Day,
  {1b00a33b-c49c-4129-9451-362e9a351226}, !- Handle
  0800|1800|MidriseApartment|default|htg_setpoint |default, !- Name
  {bad5f4ea-596e-4a18-9444-06ebffc46f91}, !- Schedule Type Limits Name
  ,                                       !- Interpolate to Timestep
  24,                                     !- Hour 1
  0,                                      !- Minute 1
  21.1111111111111;                       !- Value Until Time 1

OS:Schedule:Day,
  {9530f77e-a836-4b1a-871e-f7d74bc02675}, !- Handle
  0800|1800|MidriseApartment|default|htg_setpoint Summer Design Day, !- Name
  {bad5f4ea-596e-4a18-9444-06ebffc46f91}, !- Schedule Type Limits Name
  ,                                       !- Interpolate to Timestep
  24,                                     !- Hour 1
  0,                                      !- Minute 1
  21.1111111111111;                       !- Value Until Time 1

OS:Schedule:Day,
  {9e9fc72a-8036-4d8d-a007-665f8454ab8b}, !- Handle
  0800|1800|MidriseApartment|default|htg_setpoint Winter Design Day, !- Name
  {bad5f4ea-596e-4a18-9444-06ebffc46f91}, !- Schedule Type Limits Name
  ,                                       !- Interpolate to Timestep
  24,                                     !- Hour 1
  0,                                      !- Minute 1
  21.1111111111111;                       !- Value Until Time 1

OS:Schedule:Ruleset,
  {a4cc4f89-25b6-495a-9db5-d29160a8124b}, !- Handle
  0800|1800|MidriseApartment|default|activity, !- Name
  {d5c2b972-9297-416d-8f49-e1a196d26f7c}, !- Schedule Type Limits Name
  {2ceafe69-1f5d-4c2c-bc20-a1ad63a0a2bf}, !- Default Day Schedule Name
  {f6ce948d-774c-4f61-8612-e22bc0d020a3}, !- Summer Design Day Schedule Name
  {62c485bc-c729-4b8e-9fc0-f74e2b3ef39b}; !- Winter Design Day Schedule Name

OS:ScheduleTypeLimits,
  {d5c2b972-9297-416d-8f49-e1a196d26f7c}, !- Handle
  People Activity Type Limits,            !- Name
  0,                                      !- Lower Limit Value {BasedOnField A4}
  ,                                       !- Upper Limit Value {BasedOnField A4}
  Continuous,                             !- Numeric Type
  ActivityLevel;                          !- Unit Type

OS:Schedule:Day,
  {2ceafe69-1f5d-4c2c-bc20-a1ad63a0a2bf}, !- Handle
  0800|1800|MidriseApartment|default|activity |default, !- Name
  {d5c2b972-9297-416d-8f49-e1a196d26f7c}, !- Schedule Type Limits Name
  ,                                       !- Interpolate to Timestep
  24,                                     !- Hour 1
  0,                                      !- Minute 1
  120;                                    !- Value Until Time 1

OS:Schedule:Day,
  {f6ce948d-774c-4f61-8612-e22bc0d020a3}, !- Handle
  0800|1800|MidriseApartment|default|activity Summer Design Day, !- Name
  {d5c2b972-9297-416d-8f49-e1a196d26f7c}, !- Schedule Type Limits Name
  ,                                       !- Interpolate to Timestep
  24,                                     !- Hour 1
  0,                                      !- Minute 1
  120;                                    !- Value Until Time 1

OS:Schedule:Day,
  {62c485bc-c729-4b8e-9fc0-f74e2b3ef39b}, !- Handle
  0800|1800|MidriseApartment|default|activity Winter Design Day, !- Name
  {d5c2b972-9297-416d-8f49-e1a196d26f7c}, !- Schedule Type Limits Name
  ,                                       !- Interpolate to Timestep
  24,                                     !- Hour 1
  0,                                      !- Minute 1
  120;                                    !- Value Until Time 1

OS:Schedule:Ruleset,
  {bcb9bad6-1ec1-4a30-b1a3-a223d5ff5bb6}, !- Handle
  0800|1800|MidriseApartment|Office|occ,  !- Name
  {cd31d165-f0ed-4d26-8073-db7ceaed623d}, !- Schedule Type Limits Name
  {9405534d-9b34-4f05-959b-a648dbc6be79}, !- Default Day Schedule Name
  {f2daba0a-3615-4758-a644-4074133dc32f}, !- Summer Design Day Schedule Name
  {f9b5b820-2a67-43b5-8332-29c230caa5eb}; !- Winter Design Day Schedule Name

OS:ScheduleTypeLimits,
  {cd31d165-f0ed-4d26-8073-db7ceaed623d}, !- Handle
  Occupancy Schedule Type Limits,         !- Name
  0,                                      !- Lower Limit Value {BasedOnField A4}
  1,                                      !- Upper Limit Value {BasedOnField A4}
  Continuous,                             !- Numeric Type
  Dimensionless;                          !- Unit Type

OS:Schedule:Day,
  {9405534d-9b34-4f05-959b-a648dbc6be79}, !- Handle
  0800|1800|MidriseApartment|Office|occ |default, !- Name
  {cd31d165-f0ed-4d26-8073-db7ceaed623d}, !- Schedule Type Limits Name
  ,                                       !- Interpolate to Timestep
  8,                                      !- Hour 1
  0,                                      !- Minute 1
  0,                                      !- Value Until Time 1
  9,                                      !- Hour 2
  0,                                      !- Minute 2
  0.87,                                   !- Value Until Time 2
  9,                                      !- Hour 3
  30,                                     !- Minute 3
  0.54,                                   !- Value Until Time 3
  10,                                     !- Hour 4
  0,                                      !- Minute 4
  0.34,                                   !- Value Until Time 4
  11,                                     !- Hour 5
  0,                                      !- Minute 5
  0.87,                                   !- Value Until Time 5
  11,                                     !- Hour 6
  30,                                     !- Minute 6
  0.54,                                   !- Value Until Time 6
  12,                                     !- Hour 7
  0,                                      !- Minute 7
  0.34,                                   !- Value Until Time 7
  12,                                     !- Hour 8
  30,                                     !- Minute 8
  0.76,                                   !- Value Until Time 8
  13,                                     !- Hour 9
  0,                                      !- Minute 9
  0.91,                                   !- Value Until Time 9
  15,                                     !- Hour 10
  30,                                     !- Minute 10
  0.95,                                   !- Value Until Time 10
  16,                                     !- Hour 11
  0,                                      !- Minute 11