
OS:Version,
  {9eee52ed-2bc8-4bba-bb98-9e9f9dba65b0}, !- Handle
  1.5.5;                                  !- Version Identifier

OS:ClimateZones,
  {135edfab-17e7-40db-a436-27d385a8cd6d}, !- Handle
  ,                                       !- Active Institution
  ,                                       !- Active Year
  ASHRAE,                                 !- Climate Zone Institution Name 1
  ANSI/ASHRAE Standard 169,               !- Climate Zone Document Name 1
  2006,                                   !- Climate Zone Document Year 1
  ,                                       !- Climate Zone Value 1
  CEC,                                    !- Climate Zone Institution Name 2
  California Climate Zone Descriptions,   !- Climate Zone Document Name 2
  1995,                                   !- Climate Zone Document Year 2
  ;                                       !- Climate Zone Value 2

OS:YearDescription,
  {513d8dda-86cb-442a-b01c-1f7f0e0ac70e}; !- Handle

OS:RadianceParameters,
  {270a96f1-3c86-4b75-a667-cdf22790e2c8}, !- Handle
  1,                                      !- Accumulated Rays per Record
  0,                                      !- Direct Threshold
  1,                                      !- Direct Certainty
  1,                                      !- Direct Jitter
  1,                                      !- Direct Pretest
  6,                                      !- Ambient Bounces VMX
  2,                                      !- Ambient Bounces DMX
  4050,                                   !- Ambient Divisions VMX
  512,                                    !- Ambient Divisions DMX
  256,                                    !- Ambient Supersamples
  0.001,                                  !- Limit Weight VMX
  0.001,                                  !- Limit Weight DMX
  500,                                    !- Klems Sampling Density
  146;                                    !- Sky Discretization Resolution

OS:SimulationControl,
  {2c487a4c-bac9-4ac5-b669-1e49d9da7c2b}, !- Handle
  ,                                       !- Do Zone Sizing Calculation
  ,                                       !- Do System Sizing Calculation
  ,                                       !- Do Plant Sizing Calculation
  No,                                     !- Run Simulation for Sizing Periods
  ,                                       !- Run Simulation for Weather File Run Periods
  0.04,                                   !- Loads Convergence Tolerance Value
  ,                                       !- Temperature Convergence Tolerance Value {deltaC}
  ,                                       !- Solar Distribution
  ,                                       !- Maximum Number of Warmup Days
  2;                                      !- Minimum Number of Warmup Days

OS:Sizing:Parameters,
  {dde5af6f-7923-4600-a28a-7556673a0266}, !- Handle
  1.25,                                   !- Heating Sizing Factor
  1.15;                                   !- Cooling Sizing Factor

OS:ProgramControl,
  {05027a99-f2b3-4aeb-afc6-1425fbb4371d}; !- Handle

OS:Timestep,
  {4ebc9f1e-4707-402e-9844-67eb1ffbd522}, !- Handle
  2;                                      !- Number of Timesteps per Hour

OS:OutputControl:ReportingTolerances,
  {65797aa2-06a9-45fe-b69d-bc6e060399d3}; !- Handle

OS:ConvergenceLimits,
  {9fc11aba-8822-4f3d-970c-46391ba4040d}; !- Handle

OS:ShadowCalculation,
  {ca758bea-4416-4626-9bba-3d8795c79bd6}, !- Handle
  7,                                      !- Calculation Frequency
  15000;                                  !- Maximum Figures in Shadow Overlap Calculations

OS:SurfaceConvectionAlgorithm:Inside,
  {aaabfc36-718a-4ab0-b622-f186ebb45230}, !- Handle
  TARP;                                   !- Algorithm

OS:SurfaceConvectionAlgorithm:Outside,
  {9a0a9f6f-4bbd-4b12-a121-9492a1fcd7d6}, !- Handle
  DOE-2;                                  !- Algorithm

OS:HeatBalanceAlgorithm,
  {9d93e563-e1e0-46d7-9e39-d1c8aceb7212}, !- Handle
  ConductionTransferFunction,             !- Algorithm
  200;                                    !- Surface Temperature Upper Limit {F}

OS:ZoneAirHeatBalanceAlgorithm,
  {8520d93e-310f-4696-9bcd-36228bfdd743}, !- Handle
  AnalyticalSolution;                     !- Algorithm

OS:ZoneAirContaminantBalance,
  {eb5fc3ae-fb22-4160-8fcb-3e3b22b000d3}; !- Handle

OS:ZoneCapacitanceMultiplier:ResearchSpecial,
  {4020ce4f-5a7a-4849-8028-8305d7b751b1}, !- Handle
  ,                                       !- Temperature Capacity Multiplier
  ,                                       !- Humidity Capacity Multiplier
  ;                                       !- Carbon Dioxide Capacity Multiplier

OS:RunPeriod,
  {28df894d-6af9-4fb8-8f56-df1753344aa3}, !- Handle
  Run Period 1,                           !- Name
  1,                                      !- Begin Month
  1,                                      !- Begin Day of Month
  12,                                     !- End Month
  31,                                     !- End Day of Month
  ,                                       !- Use Weather File Holidays and Special Days
  ,                                       !- Use Weather File Daylight Saving Period
  ,                                       !- Apply Weekend Holiday Rule
  ,                                       !- Use Weather File Rain Indicators
  ,                                       !- Use Weather File Snow Indicators
  ;                                       !- Number of Times Runperiod to be Repeated

OS:Building,
  {bf305633-c5a1-4881-9edf-ca5e1a8e1274}, !- Handle
  Building 1,                             !- Name
  ,                                       !- Building Sector Type
  ,                                       !- North Axis {deg}
  ,                                       !- Nominal Floor to Floor Height {m}
  ,                                       !- Space Type Name
  ,                                       !- Default Construction Set Name
  {4258345c-d627-4b98-8498-1332b444108f}, !- Default Schedule Set Name
  ,                                       !- Standards Number of Stories
  ,                                       !- Standards Number of Above Ground Stories
  MidriseApartment;                       !- Standards Building Type

OS:LifeCycleCost:Parameters,
  {231cf8a0-f0e7-4251-a99f-11f0d464e661}, !- Handle
  FEMP,                                   !- Analysis Type
  ,                                       !- Discounting Convention
  ,                                       !- Inflation Approach
  ,                                       !- Real Discount Rate
  ,                                       !- Nominal Discount Rate
  ,                                       !- Inflation
  ,                                       !- Base Date Month
  ,                                       !- Base Date Year
  ,                                       !- Service Date Month
  ,                                       !- Service Date Year
  ,                                       !- Length of Study Period in Years
  ,                                       !- Tax Rate
  ,                                       !- Depreciation Method
  Yes;                                    !- Use NIST Fuel Escalation Rates

OS:Facility,
  {3ba8e45b-b833-44eb-a723-ea6c3946dc96}; !- Handle

OS:SpaceType,
  {1f560d11-ca0e-4566-aa5b-ea960e4c5152}, !- Handle
  MidriseApartment|BlendA|DOE Ref Pre-1980|ASHRAE 169-2006-5A, !- Name
  {7417f831-7faa-4e47-927c-0be8893e2f01}, !- Default Construction Set Name
  ,                                       !- Default Schedule Set Name
  {76a9d5bf-f482-483e-9e0d-4673be01e755}, !- Group Rendering Name
  {3fad1790-7487-465a-b48d-44061f3d3bd4}, !- Design Specification Outdoor Air Object Name
  MidriseApartment,                       !- Standards Building Type
  BlendA;                                 !- Standards Space Type

OS:Rendering:Color,
  {76a9d5bf-f482-483e-9e0d-4673be01e755}, !- Handle
  Rendering Color 1,                      !- Name
  78,                                     !- Rendering Red Value
  167,                                    !- Rendering Green Value
  222;                                    !- Rendering Blue Value

OS:SpaceType,
  {cc703c6b-1a44-4e27-8f4d-ebdd496195d1}, !- Handle
  MidriseApartment|Office|DOE Ref Pre-1980|ASHRAE 169-2006-5A, !- Name
  {7417f831-7faa-4e47-927c-0be8893e2f01}, !- Default Construction Set Name
  {0b1150c3-b74f-4a64-9825-1d51f6efa56a}, !- Default Schedule Set Name
  {67d94e68-3a64-48fa-b5ad-2e149be5092c}, !- Group Rendering Name
  {f9785637-b668-4555-a8eb-bd71f7f0e96f}, !- Design Specification Outdoor Air Object Name
  MidriseApartment,                       !- Standards Building Type
  Office;                                 !- Standards Space Type

OS:Rendering:Color,
  {67d94e68-3a64-48fa-b5ad-2e149be5092c}, !- Handle
  Rendering Color 2,                      !- Name
  120,                                    !- Rendering Red Value
  230,                                    !- Rendering Green Value
  199;                                    !- Rendering Blue Value

OS:Schedule:Ruleset,
  {d7629bff-1a2f-44f9-874b-5d8bc1f31f46}, !- Handle
  0800|1800|MidriseApartment|default|hoo, !- Name
  {65e4f1f7-3ef7-4db2-9bad-9fb027049e5a}, !- Schedule Type Limits Name
  {99b72102-efe9-4151-a3f2-9cfc7ee5c73d}, !- Default Day Schedule Name
  {24dc64c9-9a6f-4642-a0e9-ae0b3223a1ad}, !- Summer Design Day Schedule Name
  {cc1da0be-639a-471c-8720-379108a7456e}; !- Winter Design Day Schedule Name

OS:Schedule:Day,
  {99b72102-efe9-4151-a3f2-9cfc7ee5c73d}, !- Handle
  0800|1800|MidriseApartment|default|hoo Schedule Week Day, !- Name
  {65e4f1f7-3ef7-4db2-9bad-9fb027049e5a}, !- Schedule Type Limits Name
  ,                                       !- Interpolate to Timestep
  8,                                      !- Hour 1
  0,                                      !- Minute 1
  0,                                      !- Value Until Time 1
  18,                                     !- Hour 2
  0,                                      !- Minute 2
  1,                                      !- Value Until Time 2
  24,                                     !- Hour 3
  0,                                      !- Minute 3
  0;                                      !- Value Until Time 3

OS:Schedule:Day,
  {d28b82bf-faa2-42a7-9bc8-6ee7e665cec0}, !- Handle
  Schedule Day 2,                         !- Name
  ,                                       !- Schedule Type Limits Name
  ,                                       !- Interpolate to Timestep
  24,                                     !- Hour 1
  0,                                      !- Minute 1
  0;                                      !- Value Until Time 1

OS:Schedule:Day,
  {cc1da0be-639a-471c-8720-379108a7456e}, !- Handle
  0800|1800|MidriseApartment|default|hoo Winter Design Day, !- Name
  {65e4f1f7-3ef7-4db2-9bad-9fb027049e5a}, !- Schedule Type Limits Name
  ,                                       !- Interpolate to Timestep
  24,                                     !- Hour 1
  0,                                      !- Minute 1
  0;                                      !- Value Until Time 1

OS:Schedule:Day,
  {d4d0667b-8c89-4a18-b642-57887a7728dc}, !- Handle
  Schedule Day 3,                         !- Name
  ,                                       !- Schedule Type Limits Name
  ,                                       !- Interpolate to Timestep
  24,                                     !- Hour 1
  0,                                      !- Minute 1
  0;                                      !- Value Until Time 1

OS:Schedule:Day,
  {24dc64c9-9a6f-4642-a0e9-ae0b3223a1ad}, !- Handle
  0800|1800|MidriseApartment|default|hoo Summer Design Day, !- Name
  {65e4f1f7-3ef7-4db2-9bad-9fb027049e5a}, !- Schedule Type Limits Name
  ,                                       !- Interpolate to Timestep
  24,                                     !- Hour 1
  0,                                      !- Minute 1
  1;                                      !- Value Until Time 1

OS:DefaultScheduleSet,
  {4258345c-d627-4b98-8498-1332b444108f}, !- Handle
  Building Hours of Operation,            !- Name
  {d7629bff-1a2f-44f9-874b-5d8bc1f31f46}, !- Hours of Operation Schedule Name
  ,                                       !- Number of People Schedule Name
  ,                                       !- People Activity Level Schedule Name
  ,                                       !- Lighting Schedule Name
  ,                                       !- Electric Equipment Schedule Name
  ,                                       !- Gas Equipment Schedule Name
  ,                                       !- Hot Water Equipment Schedule Name
  ,                                       !- Infiltration Schedule Name
  ,                                       !- Steam Equipment Schedule Name
  ;                                       !- Other Equipment Schedule Name

OS:ScheduleTypeLimits,
  {65e4f1f7-3ef7-4db2-9bad-9fb027049e5a}, !- Handle
  OnOff,                                  !- Name
  0,                                      !- Lower Limit Value {BasedOnField A4}
  1,                                      !- Upper Limit Value {BasedOnField A4}
  Discrete,                               !- Numeric Type
  Availability;                           !- Unit Type

OS:Schedule:Ruleset,
  {cadd5ea1-2bbd-4aa1-9d11-3a88ef84d697}, !- Handle
  0800|1800|MidriseApartment|xOffice|lighting, !- Name
  {29d60048-a2cd-40ef-a29f-7a34296dd28a}, !- Schedule Type Limits Name
  {5260435f-9bf1-4836-b844-d0293c4cc77e}, !- Default Day Schedule Name
  {5414cf47-44c4-4455-89a5-236c042d501d}, !- Summer Design Day Schedule Name
  {90899831-41f3-49c9-adc9-4fd9af896e71}; !- Winter Design Day Schedule Name

OS:ScheduleTypeLimits,
  {29d60048-a2cd-40ef-a29f-7a34296dd28a}, !- Handle
  Lights Schedule Type Limits,            !- Name
  0,                                      !- Lower Limit Value {BasedOnField A4}
  1,                                      !- Upper Limit Value {BasedOnField A4}
  Continuous,                             !- Numeric Type
  Dimensionless;                          !- Unit Type

OS:Schedule:Day,
  {5260435f-9bf1-4836-b844-d0293c4cc77e}, !- Handle
  0800|1800|MidriseApartment|xOffice|lighting |default, !- Name
  {29d60048-a2cd-40ef-a29f-7a34296dd28a}, !- Schedule Type Limits Name
  ,                                       !- Interpolate to Timestep
  8,                                      !- Hour 1
  0,                                      !- Minute 1
  0.18,                                   !- Value Until Time 1
  12,                                     !- Hour 2
  0,                                      !- Minute 2
  0.9,                                    !- Value Until Time 2
  13,                                     !- Hour 3
  0,                                      !- Minute 3
  0.8,                                    !- Value Until Time 3
  17,                                     !- Hour 4
  0,                                      !- Minute 4
  0.9,                                    !- Value Until Time 4
  24,                                     !- Hour 5
  0,                                      !- Minute 5
  0.18;                                   !- Value Until Time 5

OS:Schedule:Day,
  {5414cf47-44c4-4455-89a5-236c042d501d}, !- Handle
  0800|1800|MidriseApartment|xOffice|lighting Summer Design Day, !- Name
  {29d60048-a2cd-40ef-a29f-7a34296dd28a}, !- Schedule Type Limits Name
  ,                                       !- Interpolate to Timestep
  8,                                      !- Hour 1
  0,                                      !- Minute 1
  0.18,                                   !- Value Until Time 1
  17,                                     !- Hour 2
  0,                                      !- Minute 2
  1,                                      !- Value Until Time 2
  24,                                     !- Hour 3
  0,                                      !- Minute 3
  0.18;                                   !- Value Until Time 3

OS:Schedule:Day,
  {90899831-41f3-49c9-adc9-4fd9af896e71}, !- Handle
  0800|1800|MidriseApartment|xOffice|lighting Winter Design Day, !- Name
  {29d60048-a2cd-40ef-a29f-7a34296dd28a}, !- Schedule Type Limits Name
  ,                                       !- Interpolate to Timestep
  24,                                     !- Hour 1
  0,                                      !- Minute 1
  0.18;                                   !- Value Until Time 1

OS:Schedule:Ruleset,
  {d3ba4810-e67a-4a59-a601-809508357768}, !- Handle
  0800|1800|MidriseApartment|default|hw_loop_temp, !- Name
  {7234c27a-7795-492a-b011-736f0c546ee5}, !- Schedule Type Limits Name
  {0a2b7d31-b6e3-4ad5-a9a4-d92b89e18a48}, !- Default Day Schedule Name
  {36f9b794-94b7-46ed-a1b9-a56c71ffb80f}, !- Summer Design Day Schedule Name
  {15a02b3e-fd1a-42b1-a150-8630bea32014}; !- Winter Design Day Schedule Name

OS:ScheduleTypeLimits,
  {7234c27a-7795-492a-b011-736f0c546ee5}, !- Handle
  Temperature Schedule Type Limits,       !- Name
  ,                                       !- Lower Limit Value {BasedOnField A4}
  ,                                       !- Upper Limit Value {BasedOnField A4}
  Continuous,                             !- Numeric Type
  Temperature;                            !- Unit Type

OS:Schedule:Day,
  {0a2b7d31-b6e3-4ad5-a9a4-d92b89e18a48}, !- Handle
  0800|1800|MidriseApartment|default|hw_loop_temp |default, !- Name
  {7234c27a-7795-492a-b011-736f0c546ee5}, !- Schedule Type Limits Name
  ,                                       !- Interpolate to Timestep
  24,                                     !- Hour 1
  0,                                      !- Minute 1
  60.0000000000001;                       !- Value Until Time 1

OS:Schedule:Day,
  {36f9b794-94b7-46ed-a1b9-a56c71ffb80f}, !- Handle
  0800|1800|MidriseApartment|default|hw_loop_temp Summer Design Day, !- Name
  {7234c27a-7795-492a-b011-736f0c546ee5}, !- Schedule Type Limits Name
  ,                                       !- Interpolate to Timestep
  24,                                     !- Hour 1
  0,                                      !- Minute 1
  60.0000000000001;                       !- Value Until Time 1

OS:Schedule:Day,
  {15a02b3e-fd1a-42b1-a150-8630bea32014}, !- Handle
  0800|1800|MidriseApartment|default|hw_loop_temp Winter Design Day, !- Name
  {7234c27a-7795-492a-b011-736f0c546ee5}, !- Schedule Type Limits Name
  ,                                       !- Interpolate to Timestep
  24,                                     !- Hour 1
  0,                                      !- Minute 1
  60.0000000000001;                       !- Value Until Time 1

OS:Schedule:Ruleset,
  {82467182-3e76-4c1a-855f-4bcef59ad8fb}, !- Handle
  0800|1800|MidriseApartment|default|ext_lighting, !- Name
  {29d60048-a2cd-40ef-a29f-7a34296dd28a}, !- Schedule Type Limits Name
  {89a3a1a3-e479-427f-aecd-080cb789c6d6}, !- Default Day Schedule Name
  {2f6a8586-4474-4a43-a34d-6514d4611761}, !- Summer Design Day Schedule Name
  {106b7c75-d1b0-4b3d-b25f-66ecb14a5f9a}; !- Winter Design Day Schedule Name

OS:Schedule:Day,
  {89a3a1a3-e479-427f-aecd-080cb789c6d6}, !- Handle
  0800|1800|MidriseApartment|default|ext_lighting |default, !- Name
  {29d60048-a2cd-40ef-a29f-7a34296dd28a}, !- Schedule Type Limits Name
  ,                                       !- Interpolate to Timestep
  24,                                     !- Hour 1
  0,                                      !- Minute 1
  1;                                      !- Value Until Time 1

OS:Schedule:Day,
  {2f6a8586-4474-4a43-a34d-6514d4611761}, !- Handle
  0800|1800|MidriseApartment|default|ext_lighting Summer Design Day, !- Name
  {29d60048-a2cd-40ef-a29f-7a34296dd28a}, !- Schedule Type Limits Name
  ,                                       !- Interpolate to Timestep
  24,                                     !- Hour 1
  0,                                      !- Minute 1
  1;                                      !- Value Until Time 1

OS:Schedule:Day,
  {106b7c75-d1b0-4b3d-b25f-66ecb14a5f9a}, !- Handle
  0800|1800|MidriseApartment|default|ext_lighting Winter Design Day, !- Name
  {29d60048-a2cd-40ef-a29f-7a34296dd28a}, !- Schedule Type Limits Name
  ,                                       !- Interpolate to Timestep
  24,                                     !- Hour 1
  0,                                      !- Minute 1
  1;                                      !- Value Until Time 1

OS:Schedule:Ruleset,
  {fe54ec64-48e5-4617-9443-a866cec95f76}, !- Handle
  0800|1800|MidriseApartment|Apartment|hvac, !- Name
  {d46e86a0-dfe5-423d-a1a4-4291f4db7750}, !- Schedule Type Limits Name
  {0b403cf7-2630-4f34-b990-082841be533c}, !- Default Day Schedule Name
  {3beca834-f026-4d4e-a261-6f35867abfcb}, !- Summer Design Day Schedule Name
  {14f4e3df-7356-408b-ad37-0b0cd2af2089}; !- Winter Design Day Schedule Name

OS:ScheduleTypeLimits,
  {d46e86a0-dfe5-423d-a1a4-4291f4db7750}, !- Handle
  HVAC Operation Schedule Type Limits,    !- Name
  0,                                      !- Lower Limit Value {BasedOnField A4}
  1,                                      !- Upper Limit Value {BasedOnField A4}
  Discrete,                               !- Numeric Type
  Availability;                           !- Unit Type

OS:Schedule:Day,
  {0b403cf7-2630-4f34-b990-082841be533c}, !- Handle
  0800|1800|MidriseApartment|Apartment|hvac |default, !- Name
  {d46e86a0-dfe5-423d-a1a4-4291f4db7750}, !- Schedule Type Limits Name
  ,                                       !- Interpolate to Timestep
  24,                                     !- Hour 1
  0,                                      !- Minute 1
  1;                                      !- Value Until Time 1

OS:Schedule:Day,
  {3beca834-f026-4d4e-a261-6f35867abfcb}, !- Handle
  0800|1800|MidriseApartment|Apartment|hvac Summer Design Day, !- Name
  {d46e86a0-dfe5-423d-a1a4-4291f4db7750}, !- Schedule Type Limits Name
  ,                                       !- Interpolate to Timestep
  24,                                     !- Hour 1
  0,                                      !- Minute 1
  1;                                      !- Value Until Time 1

OS:Schedule:Day,
  {14f4e3df-7356-408b-ad37-0b0cd2af2089}, !- Handle
  0800|1800|MidriseApartment|Apartment|hvac Winter Design Day, !- Name
  {d46e86a0-dfe5-423d-a1a4-4291f4db7750}, !- Schedule Type Limits Name
  ,                                       !- Interpolate to Timestep
  24,                                     !- Hour 1
  0,                                      !- Minute 1
  1;                                      !- Value Until Time 1

OS:Schedule:Ruleset,
  {d894b27a-4db6-4675-bc85-e319ae941b14}, !- Handle
  0800|1800|MidriseApartment|default|htg_setpoint, !- Name
  {96697a58-a331-4181-9210-ea482a417dfa}, !- Schedule Type Limits Name
  {6b3c93d7-1ff6-45d5-b88e-ea99e978e416}, !- Default Day Schedule Name
  {b80ad396-5bc6-4bc4-9d07-346109d2053b}, !- Summer Design Day Schedule Name
  {ee48b679-3fdb-4d17-a1e8-f1b969885fac}; !- Winter Design Day Schedule Name

OS:ScheduleTypeLimits,
  {96697a58-a331-4181-9210-ea482a417dfa}, !- Handle
  Thermostat Heating Setpoint Schedule Type Limits, !- Name
  0,                                      !- Lower Limit Value {BasedOnField A4}
  100,                                    !- Upper Limit Value {BasedOnField A4}
  Continuous,                             !- Numeric Type
  Temperature;                            !- Unit Type

OS:Schedule:Day,
  {6b3c93d7-1ff6-45d5-b88e-ea99e978e416}, !- Handle
  0800|1800|MidriseApartment|default|htg_setpoint |default, !- Name
  {96697a58-a331-4181-9210-ea482a417dfa}, !- Schedule Type Limits Name
  ,                                       !- Interpolate to Timestep
  24,                                     !- Hour 1
  0,                                      !- Minute 1
  21.1111111111111;                       !- Value Until Time 1

OS:Schedule:Day,
  {b80ad396-5bc6-4bc4-9d07-346109d2053b}, !- Handle
  0800|1800|MidriseApartment|default|htg_setpoint Summer Design Day, !- Name
  {96697a58-a331-4181-9210-ea482a417dfa}, !- Schedule Type Limits Name
  ,                                       !- Interpolate to Timestep
  24,                                     !- Hour 1
  0,                                      !- Minute 1
  21.1111111111111;                       !- Value Until Time 1

OS:Schedule:Day,
  {ee48b679-3fdb-4d17-a1e8-f1b969885fac}, !- Handle
  0800|1800|MidriseApartment|default|htg_setpoint Winter Design Day, !- Name
  {96697a58-a331-4181-9210-ea482a417dfa}, !- Schedule Type Limits Name
  ,                                       !- Interpolate to Timestep
  24,                                     !- Hour 1
  0,                                      !- Minute 1
  21.1111111111111;                       !- Value Until Time 1

OS:Schedule:Ruleset,
  {4cb08b9f-6eca-4329-b574-8fd56733639a}, !- Handle
  0800|1800|MidriseApartment|default|activity, !- Name
  {1be7740e-67a9-486a-a9c4-397f0f17a7d3}, !- Schedule Type Limits Name
  {f49feb22-b7fb-4905-808a-b7eb2f5b5f92}, !- Default Day Schedule Name
  {97b60395-f0c3-4581-8b85-515826b5da6b}, !- Summer Design Day Schedule Name
  {66480596-8a23-415c-82a3-d25c0466caf6}; !- Winter Design Day Schedule Name

OS:ScheduleTypeLimits,
  {1be7740e-67a9-486a-a9c4-397f0f17a7d3}, !- Handle
  People Activity Type Limits,            !- Name
  0,                                      !- Lower Limit Value {BasedOnField A4}
  ,                                       !- Upper Limit Value {BasedOnField A4}
  Continuous,                             !- Numeric Type
  ActivityLevel;                          !- Unit Type

OS:Schedule:Day,
  {f49feb22-b7fb-4905-808a-b7eb2f5b5f92}, !- Handle
  0800|1800|MidriseApartment|default|activity |default, !- Name
  {1be7740e-67a9-486a-a9c4-397f0f17a7d3}, !- Schedule Type Limits Name
  ,                                       !- Interpolate to Timestep
  24,                                     !- Hour 1
  0,                                      !- Minute 1
  120;                                    !- Value Until Time 1

OS:Schedule:Day,
  {97b60395-f0c3-4581-8b85-515826b5da6b}, !- Handle
  0800|1800|MidriseApartment|default|activity Summer Design Day, !- Name
  {1be7740e-67a9-486a-a9c4-397f0f17a7d3}, !- Schedule Type Limits Name
  ,                                       !- Interpolate to Timestep
  24,                                     !- Hour 1
  0,                                      !- Minute 1
  120;                                    !- Value Until Time 1

OS:Schedule:Day,
  {66480596-8a23-415c-82a3-d25c0466caf6}, !- Handle
  0800|1800|MidriseApartment|default|activity Winter Design Day, !- Name
  {1be7740e-67a9-486a-a9c4-397f0f17a7d3}, !- Schedule Type Limits Name
  ,                                       !- Interpolate to Timestep
  24,                                     !- Hour 1
  0,                                      !- Minute 1
  120;                                    !- Value Until Time 1

OS:Schedule:Ruleset,
  {40376ce5-911c-496c-a737-faf25760776e}, !- Handle
  0800|1800|MidriseApartment|Office|occ,  !- Name
  {d2a56c77-3eda-4970-91fd-d371f35e4954}, !- Schedule Type Limits Name
  {58a1bba6-b91c-4b81-a9e7-b29d7a9d3718}, !- Default Day Schedule Name
  {220ec3bf-131c-4966-97b0-d94a9cdecd3b}, !- Summer Design Day Schedule Name
  {7ce70b0e-752d-4bfc-8813-afb2d7280ec1}; !- Winter Design Day Schedule Name

OS:ScheduleTypeLimits,
  {d2a56c77-3eda-4970-91fd-d371f35e4954}, !- Handle
  Occupancy Schedule Type Limits,         !- Name
  0,                                      !- Lower Limit Value {BasedOnField A4}
  1,                                      !- Upper Limit Value {BasedOnField A4}
  Continuous,                             !- Numeric Type
  Dimensionless;                          !- Unit Type

OS:Schedule:Day,
  {58a1bba6-b91c-4b81-a9e7-b29d7a9d3718}, !- Handle
  0800|1800|MidriseApartment|Office|occ |default, !- Name
  {d2a56c77-3eda-4970-91fd-d371f35e4954}, !- Schedule Type Limits Name
  ,                                       !- Interpolate to Timestep
  8,                                      !- Hour 1
  0,                                      !- Minute 1
  0,                                      !- Value Until Time 1
  9,                                      !- Hour 2
  0,                                      !- Minute 2
  0.87,                                   !- Value Until Time 2
  9,                                      !- Hour 3
  30,                                     !- Minute 3
  0.54,                                   !- Value Until Time 3
  10,                                     !- Hour 4
  0,                                      !- Minute 4
  0.34,                                   !- Value Until Time 4
  11,                                     !- Hour 5
  0,                                      !- Minute 5
  0.87,                                   !- Value Until Time 5
  11,                                     !- Hour 6
  30,                                     !- Minute 6
  0.54,                                   !- Value Until Time 6
  12,                                     !- Hour 7
  0,                                      !- Minute 7
  0.34,                                   !- Value Until Time 7
  12,                                     !- Hour 8
  30,                                     !- Minute 8
  0.76,                                   !- Value Until Time 8
  13,                                     !- Hour 9
  0,                                      !- Minute 9
  0.91,                                   !- Value Until Time 9
  15,                                     !- Hour 10
  30,                                     !- Minute 10
  0.95,                                   !- Value Until Time 10
  16,                                     !- Hour 11