
OS:Version,
  {9ea63b5a-e204-469f-8983-4e692ee44d85}, !- Handle
  1.6.0;                                  !- Version Identifier

OS:ClimateZones,
  {135edfab-17e7-40db-a436-27d385a8cd6d}, !- Handle
  ,                                       !- Active Institution
  ,                                       !- Active Year
  ASHRAE,                                 !- Climate Zone Institution Name 1
  ANSI/ASHRAE Standard 169,               !- Climate Zone Document Name 1
  2006,                                   !- Climate Zone Document Year 1
  ,                                       !- Climate Zone Value 1
  CEC,                                    !- Climate Zone Institution Name 2
  California Climate Zone Descriptions,   !- Climate Zone Document Name 2
  1995,                                   !- Climate Zone Document Year 2
  ;                                       !- Climate Zone Value 2

OS:YearDescription,
  {513d8dda-86cb-442a-b01c-1f7f0e0ac70e}; !- Handle

OS:RadianceParameters,
  {270a96f1-3c86-4b75-a667-cdf22790e2c8}, !- Handle
  1,                                      !- Accumulated Rays per Record
  0,                                      !- Direct Threshold
  1,                                      !- Direct Certainty
  1,                                      !- Direct Jitter
  1,                                      !- Direct Pretest
  6,                                      !- Ambient Bounces VMX
  2,                                      !- Ambient Bounces DMX
  4050,                                   !- Ambient Divisions VMX
  512,                                    !- Ambient Divisions DMX
  256,                                    !- Ambient Supersamples
  0.001,                                  !- Limit Weight VMX
  0.001,                                  !- Limit Weight DMX
  500,                                    !- Klems Sampling Density
  146;                                    !- Sky Discretization Resolution

OS:SimulationControl,
  {2c487a4c-bac9-4ac5-b669-1e49d9da7c2b}, !- Handle
  ,                                       !- Do Zone Sizing Calculation
  ,                                       !- Do System Sizing Calculation
  ,                                       !- Do Plant Sizing Calculation
  No,                                     !- Run Simulation for Sizing Periods
  ,                                       !- Run Simulation for Weather File Run Periods
  0.04,                                   !- Loads Convergence Tolerance Value
  ,                                       !- Temperature Convergence Tolerance Value {deltaC}
  ,                                       !- Solar Distribution
  ,                                       !- Maximum Number of Warmup Days
  2;                                      !- Minimum Number of Warmup Days

OS:Sizing:Parameters,
  {dde5af6f-7923-4600-a28a-7556673a0266}, !- Handle
  1.25,                                   !- Heating Sizing Factor
  1.15;                                   !- Cooling Sizing Factor

OS:ProgramControl,
  {05027a99-f2b3-4aeb-afc6-1425fbb4371d}; !- Handle

OS:Timestep,
  {4ebc9f1e-4707-402e-9844-67eb1ffbd522}, !- Handle
  2;                                      !- Number of Timesteps per Hour

OS:OutputControl:ReportingTolerances,
  {65797aa2-06a9-45fe-b69d-bc6e060399d3}; !- Handle

OS:ConvergenceLimits,
  {9fc11aba-8822-4f3d-970c-46391ba4040d}; !- Handle

OS:ShadowCalculation,
  {ca758bea-4416-4626-9bba-3d8795c79bd6}, !- Handle
  7,                                      !- Calculation Frequency
  15000;                                  !- Maximum Figures in Shadow Overlap Calculations

OS:SurfaceConvectionAlgorithm:Inside,
  {aaabfc36-718a-4ab0-b622-f186ebb45230}, !- Handle
  TARP;                                   !- Algorithm

OS:SurfaceConvectionAlgorithm:Outside,
  {9a0a9f6f-4bbd-4b12-a121-9492a1fcd7d6}, !- Handle
  DOE-2;                                  !- Algorithm

OS:HeatBalanceAlgorithm,
  {9d93e563-e1e0-46d7-9e39-d1c8aceb7212}, !- Handle
  ConductionTransferFunction,             !- Algorithm
  200;                                    !- Surface Temperature Upper Limit {F}

OS:ZoneAirHeatBalanceAlgorithm,
  {8520d93e-310f-4696-9bcd-36228bfdd743}, !- Handle
  AnalyticalSolution;                     !- Algorithm

OS:ZoneAirContaminantBalance,
  {eb5fc3ae-fb22-4160-8fcb-3e3b22b000d3}; !- Handle

OS:ZoneCapacitanceMultiplier:ResearchSpecial,
  {4020ce4f-5a7a-4849-8028-8305d7b751b1}, !- Handle
  ,                                       !- Temperature Capacity Multiplier
  ,                                       !- Humidity Capacity Multiplier
  ;                                       !- Carbon Dioxide Capacity Multiplier

OS:RunPeriod,
  {28df894d-6af9-4fb8-8f56-df1753344aa3}, !- Handle
  Run Period 1,                           !- Name
  1,                                      !- Begin Month
  1,                                      !- Begin Day of Month
  12,                                     !- End Month
  31,                                     !- End Day of Month
  ,                                       !- Use Weather File Holidays and Special Days
  ,                                       !- Use Weather File Daylight Saving Period
  ,                                       !- Apply Weekend Holiday Rule
  ,                                       !- Use Weather File Rain Indicators
  ,                                       !- Use Weather File Snow Indicators
  ;                                       !- Number of Times Runperiod to be Repeated

OS:Building,
  {bf305633-c5a1-4881-9edf-ca5e1a8e1274}, !- Handle
  Building 1,                             !- Name
  ,                                       !- Building Sector Type
  ,                                       !- North Axis {deg}
  ,                                       !- Nominal Floor to Floor Height {m}
  ,                                       !- Space Type Name
  ,                                       !- Default Construction Set Name
  {53aac201-f423-411c-b08d-a277e65b6f86}, !- Default Schedule Set Name
  ,                                       !- Standards Number of Stories
  ,                                       !- Standards Number of Above Ground Stories
  MidriseApartment;                       !- Standards Building Type

OS:LifeCycleCost:Parameters,
  {231cf8a0-f0e7-4251-a99f-11f0d464e661}, !- Handle
  FEMP,                                   !- Analysis Type
  ,                                       !- Discounting Convention
  ,                                       !- Inflation Approach
  ,                                       !- Real Discount Rate
  ,                                       !- Nominal Discount Rate
  ,                                       !- Inflation
  ,                                       !- Base Date Month
  ,                                       !- Base Date Year
  ,                                       !- Service Date Month
  ,                                       !- Service Date Year
  ,                                       !- Length of Study Period in Years
  ,                                       !- Tax Rate
  ,                                       !- Depreciation Method
  Yes;                                    !- Use NIST Fuel Escalation Rates

OS:Facility,
  {3ba8e45b-b833-44eb-a723-ea6c3946dc96}; !- Handle

OS:SpaceType,
  {b9ad928c-33c1-48c5-b424-4e70f1147078}, !- Handle
  MidriseApartment|BlendA|DOE Ref 2004|ASHRAE 169-2006-5A, !- Name
  {dcce3bef-40b4-47fd-a22f-b171a99ac21b}, !- Default Construction Set Name
  ,                                       !- Default Schedule Set Name
  {06999702-de6d-4ffa-ba5b-71f26088ff84}, !- Group Rendering Name
  {832a4a5c-6553-4d1d-a289-a7cb07a2efa6}, !- Design Specification Outdoor Air Object Name
  MidriseApartment,                       !- Standards Building Type
  BlendA;                                 !- Standards Space Type

OS:Rendering:Color,
  {06999702-de6d-4ffa-ba5b-71f26088ff84}, !- Handle
  Rendering Color 1,                      !- Name
  78,                                     !- Rendering Red Value
  167,                                    !- Rendering Green Value
  222;                                    !- Rendering Blue Value

OS:SpaceType,
  {f691a6cd-f6bc-40e6-823c-209f8dab4a7e}, !- Handle
  MidriseApartment|Office|DOE Ref 2004|ASHRAE 169-2006-5A, !- Name
  {dcce3bef-40b4-47fd-a22f-b171a99ac21b}, !- Default Construction Set Name
  {5c23af61-9d26-4102-8190-745fd080b88b}, !- Default Schedule Set Name
  {907239ee-69f5-4d7f-a92f-ea1af1439c17}, !- Group Rendering Name
  {87f9c367-6098-42c9-b036-2fc91c3b054d}, !- Design Specification Outdoor Air Object Name
  MidriseApartment,                       !- Standards Building Type
  Office;                                 !- Standards Space Type

OS:Rendering:Color,
  {907239ee-69f5-4d7f-a92f-ea1af1439c17}, !- Handle
  Rendering Color 2,                      !- Name
  120,                                    !- Rendering Red Value
  230,                                    !- Rendering Green Value
  199;                                    !- Rendering Blue Value

OS:Schedule:Ruleset,
  {36a1c467-d56e-40b9-a588-39f2d899f761}, !- Handle
  0800|1800|MidriseApartment|default|hoo, !- Name
  {dc91d934-fe5d-4f85-9009-39c764923589}, !- Schedule Type Limits Name
  {cfae7c22-338a-431e-8a50-66a376ee1010}, !- Default Day Schedule Name
  {e77b07e5-9d3b-48bd-9bdd-18f1a2fbf70b}, !- Summer Design Day Schedule Name
  {c739c580-fa3e-406a-9ac0-de2b012e55a9}; !- Winter Design Day Schedule Name

OS:Schedule:Day,
  {cfae7c22-338a-431e-8a50-66a376ee1010}, !- Handle
  0800|1800|MidriseApartment|default|hoo Schedule Week Day, !- Name
  {dc91d934-fe5d-4f85-9009-39c764923589}, !- Schedule Type Limits Name
  ,                                       !- Interpolate to Timestep
  8,                                      !- Hour 1
  0,                                      !- Minute 1
  0,                                      !- Value Until Time 1
  18,                                     !- Hour 2
  0,                                      !- Minute 2
  1,                                      !- Value Until Time 2
  24,                                     !- Hour 3
  0,                                      !- Minute 3
  0;                                      !- Value Until Time 3

OS:Schedule:Day,
  {6c9405f0-6615-42ff-a9a6-11eda0f63b6e}, !- Handle
  Schedule Day 2,                         !- Name
  ,                                       !- Schedule Type Limits Name
  ,                                       !- Interpolate to Timestep
  24,                                     !- Hour 1
  0,                                      !- Minute 1
  0;                                      !- Value Until Time 1

OS:Schedule:Day,
  {c739c580-fa3e-406a-9ac0-de2b012e55a9}, !- Handle
  0800|1800|MidriseApartment|default|hoo Winter Design Day, !- Name
  {dc91d934-fe5d-4f85-9009-39c764923589}, !- Schedule Type Limits Name
  ,                                       !- Interpolate to Timestep
  24,                                     !- Hour 1
  0,                                      !- Minute 1
  0;                                      !- Value Until Time 1

OS:Schedule:Day,
  {8091da07-be6c-4baa-bc26-b5b3f4a5e660}, !- Handle
  Schedule Day 3,                         !- Name
  ,                                       !- Schedule Type Limits Name
  ,                                       !- Interpolate to Timestep
  24,                                     !- Hour 1
  0,                                      !- Minute 1
  0;                                      !- Value Until Time 1

OS:Schedule:Day,
  {e77b07e5-9d3b-48bd-9bdd-18f1a2fbf70b}, !- Handle
  0800|1800|MidriseApartment|default|hoo Summer Design Day, !- Name
  {dc91d934-fe5d-4f85-9009-39c764923589}, !- Schedule Type Limits Name
  ,                                       !- Interpolate to Timestep
  24,                                     !- Hour 1
  0,                                      !- Minute 1
  1;                                      !- Value Until Time 1

OS:DefaultScheduleSet,
  {53aac201-f423-411c-b08d-a277e65b6f86}, !- Handle
  Building Hours of Operation,            !- Name
  {36a1c467-d56e-40b9-a588-39f2d899f761}, !- Hours of Operation Schedule Name
  ,                                       !- Number of People Schedule Name
  ,                                       !- People Activity Level Schedule Name
  ,                                       !- Lighting Schedule Name
  ,                                       !- Electric Equipment Schedule Name
  ,                                       !- Gas Equipment Schedule Name
  ,                                       !- Hot Water Equipment Schedule Name
  ,                                       !- Infiltration Schedule Name
  ,                                       !- Steam Equipment Schedule Name
  ;                                       !- Other Equipment Schedule Name

OS:ScheduleTypeLimits,
  {dc91d934-fe5d-4f85-9009-39c764923589}, !- Handle
  OnOff,                                  !- Name
  0,                                      !- Lower Limit Value {BasedOnField A4}
  1,                                      !- Upper Limit Value {BasedOnField A4}
  Discrete,                               !- Numeric Type
  Availability;                           !- Unit Type

OS:Schedule:Ruleset,
  {f2db9db6-def4-43b2-a715-3bd39f8cf7f3}, !- Handle
  0800|1800|MidriseApartment|default|hw_loop_temp, !- Name
  {a29c1631-64b8-4da9-923e-7a48b7a43cb9}, !- Schedule Type Limits Name
  {0f980fcc-c135-4f64-a22f-c7c429395269}, !- Default Day Schedule Name
  {85b764ca-4e5b-4660-88c1-e1383e13aec7}, !- Summer Design Day Schedule Name
  {72714ab5-05e8-4e28-b25f-30b443d6372e}; !- Winter Design Day Schedule Name

OS:ScheduleTypeLimits,
  {a29c1631-64b8-4da9-923e-7a48b7a43cb9}, !- Handle
  Temperature Schedule Type Limits,       !- Name
  ,                                       !- Lower Limit Value {BasedOnField A4}
  ,                                       !- Upper Limit Value {BasedOnField A4}
  Continuous,                             !- Numeric Type
  Temperature;                            !- Unit Type

OS:Schedule:Day,
  {0f980fcc-c135-4f64-a22f-c7c429395269}, !- Handle
  0800|1800|MidriseApartment|default|hw_loop_temp |default, !- Name
  {a29c1631-64b8-4da9-923e-7a48b7a43cb9}, !- Schedule Type Limits Name
  ,                                       !- Interpolate to Timestep
  24,                                     !- Hour 1
  0,                                      !- Minute 1
  60.0000000000001;                       !- Value Until Time 1

OS:Schedule:Day,
  {85b764ca-4e5b-4660-88c1-e1383e13aec7}, !- Handle
  0800|1800|MidriseApartment|default|hw_loop_temp Summer Design Day, !- Name
  {a29c1631-64b8-4da9-923e-7a48b7a43cb9}, !- Schedule Type Limits Name
  ,                                       !- Interpolate to Timestep
  24,                                     !- Hour 1
  0,                                      !- Minute 1
  60.0000000000001;                       !- Value Until Time 1

OS:Schedule:Day,
  {72714ab5-05e8-4e28-b25f-30b443d6372e}, !- Handle
  0800|1800|MidriseApartment|default|hw_loop_temp Winter Design Day, !- Name
  {a29c1631-64b8-4da9-923e-7a48b7a43cb9}, !- Schedule Type Limits Name
  ,                                       !- Interpolate to Timestep
  24,                                     !- Hour 1
  0,                                      !- Minute 1
  60.0000000000001;                       !- Value Until Time 1

OS:Schedule:Ruleset,
  {25592b8d-9417-499a-85ff-4247e9faf06d}, !- Handle
  0800|1800|MidriseApartment|Office|infiltration, !- Name
  {67fcab80-9893-4026-90b2-e7cc4484baf3}, !- Schedule Type Limits Name
  {46e7b091-dbf9-4ec8-a431-1cbdc8b31520}, !- Default Day Schedule Name
  {c461a632-c3e2-4d44-9d6c-d87dd9fe0213}, !- Summer Design Day Schedule Name
  {46a55bee-9178-41af-be36-c48b95925eb9}; !- Winter Design Day Schedule Name

OS:ScheduleTypeLimits,
  {67fcab80-9893-4026-90b2-e7cc4484baf3}, !- Handle
  Fraction Schedule Type Limits,          !- Name
  0,                                      !- Lower Limit Value {BasedOnField A4}
  1,                                      !- Upper Limit Value {BasedOnField A4}
  Continuous,                             !- Numeric Type
  Dimensionless;                          !- Unit Type

OS:Schedule:Day,
  {46e7b091-dbf9-4ec8-a431-1cbdc8b31520}, !- Handle
  0800|1800|MidriseApartment|Office|infiltration |default, !- Name
  {67fcab80-9893-4026-90b2-e7cc4484baf3}, !- Schedule Type Limits Name
  ,                                       !- Interpolate to Timestep
  8,                                      !- Hour 1
  0,                                      !- Minute 1
  1,                                      !- Value Until Time 1
  17,                                     !- Hour 2
  0,                                      !- Minute 2
  0.25,                                   !- Value Until Time 2
  24,                                     !- Hour 3
  0,                                      !- Minute 3
  1;                                      !- Value Until Time 3

OS:Schedule:Day,
  {c461a632-c3e2-4d44-9d6c-d87dd9fe0213}, !- Handle
  0800|1800|MidriseApartment|Office|infiltration Summer Design Day, !- Name
  {67fcab80-9893-4026-90b2-e7cc4484baf3}, !- Schedule Type Limits Name
  ,                                       !- Interpolate to Timestep
  8,                                      !- Hour 1
  0,                                      !- Minute 1
  1,                                      !- Value Until Time 1
  17,                                     !- Hour 2
  0,                                      !- Minute 2
  0.25,                                   !- Value Until Time 2
  24,                                     !- Hour 3
  0,                                      !- Minute 3
  1;                                      !- Value Until Time 3

OS:Schedule:Day,
  {46a55bee-9178-41af-be36-c48b95925eb9}, !- Handle
  0800|1800|MidriseApartment|Office|infiltration Winter Design Day, !- Name
  {67fcab80-9893-4026-90b2-e7cc4484baf3}, !- Schedule Type Limits Name
  ,                                       !- Interpolate to Timestep
  8,                                      !- Hour 1
  0,                                      !- Minute 1
  1,                                      !- Value Until Time 1
  17,                                     !- Hour 2
  0,                                      !- Minute 2
  0.25,                                   !- Value Until Time 2
  24,                                     !- Hour 3
  0,                                      !- Minute 3
  1;                                      !- Value Until Time 3

OS:Schedule:Ruleset,
  {4944860b-ccda-4fce-9518-33121287f5ec}, !- Handle
  0800|1800|MidriseApartment|default|clothing, !- Name
  {c7e8a17f-db0f-48e6-bc12-ed35a34dc5df}, !- Schedule Type Limits Name
  {4ac8a112-ca6a-4a34-b584-049336c2daca}, !- Default Day Schedule Name
  {4700450d-8f40-4d1b-9a79-3e827ff47809}, !- Summer Design Day Schedule Name
  {1a743aeb-9b24-41c7-b39a-2c7ddba33676}; !- Winter Design Day Schedule Name

OS:ScheduleTypeLimits,
  {c7e8a17f-db0f-48e6-bc12-ed35a34dc5df}, !- Handle
  Dimensionless Schedule Type Limits,     !- Name
  ,                                       !- Lower Limit Value {BasedOnField A4}
  ,                                       !- Upper Limit Value {BasedOnField A4}
  Continuous,                             !- Numeric Type
  Dimensionless;                          !- Unit Type

OS:Schedule:Day,
  {4ac8a112-ca6a-4a34-b584-049336c2daca}, !- Handle
  0800|1800|MidriseApartment|default|clothing |default, !- Name
  {c7e8a17f-db0f-48e6-bc12-ed35a34dc5df}, !- Schedule Type Limits Name
  ,                                       !- Interpolate to Timestep
  24,                                     !- Hour 1
  0,                                      !- Minute 1
  0.9;                                    !- Value Until Time 1

OS:Schedule:Day,
  {4700450d-8f40-4d1b-9a79-3e827ff47809}, !- Handle
  0800|1800|MidriseApartment|default|clothing Summer Design Day, !- Name
  {c7e8a17f-db0f-48e6-bc12-ed35a34dc5df}, !- Schedule Type Limits Name
  ,                                       !- Interpolate to Timestep
  24,                                     !- Hour 1
  0,                                      !- Minute 1
  0.9;                                    !- Value Until Time 1

OS:Schedule:Day,
  {1a743aeb-9b24-41c7-b39a-2c7ddba33676}, !- Handle
  0800|1800|MidriseApartment|default|clothing Winter Design Day, !- Name
  {c7e8a17f-db0f-48e6-bc12-ed35a34dc5df}, !- Schedule Type Limits Name
  ,                                       !- Interpolate to Timestep
  24,                                     !- Hour 1
  0,                                      !- Minute 1
  0.9;                                    !- Value Until Time 1

OS:Schedule:Rule,
  {d1929f5f-4998-497f-ba50-1cc1e2e82aa9}, !- Handle
  0800|1800|MidriseApartment|default|clothing |7/1-9/30|Mon/Tue/Wed/Thu/Fri/Sat/Sun Rule, !- Name
  {4944860b-ccda-4fce-9518-33121287f5ec}, !- Schedule Ruleset Name
  0,                                      !- Rule Order
  {aebbfc2e-44f6-484a-a690-e607c8476abd}, !- Day Schedule Name
  Yes,                                    !- Apply Sunday
  Yes,                                    !- Apply Monday
  Yes,                                    !- Apply Tuesday
  Yes,                                    !- Apply Wednesday
  Yes,                                    !- Apply Thursday
  Yes,                                    !- Apply Friday
  Yes,                                    !- Apply Saturday
  ,                                       !- Apply Holiday
  DateRange,                              !- Date Specification Type
  7,                                      !- Start Month
  1,                                      !- Start Day
  9,                                      !- End Month
  30;                                     !- End Day

OS:Schedule:Day,
  {aebbfc2e-44f6-484a-a690-e607c8476abd}, !- Handle
  0800|1800|MidriseApartment|default|clothing |7/1-9/30|Mon/Tue/Wed/Thu/Fri/Sat/Sun, !- Name
  {c7e8a17f-db0f-48e6-bc12-ed35a34dc5df}, !- Schedule Type Limits Name
  ,                                       !- Interpolate to Timestep
  24,                                     !- Hour 1
  0,                                      !- Minute 1
  0.7;                                    !- Value Until Time 1

OS:Schedule:Rule,
  {148a7e17-d1f3-4bf3-aed5-4da04a867ee6}, !- Handle
  0800|1800|MidriseApartment|default|clothing |12/1-3/31|Mon/Tue/Wed/Thu/Fri/Sat/Sun Rule, !- Name
  {4944860b-ccda-4fce-9518-33121287f5ec}, !- Schedule Ruleset Name
  1,                                      !- Rule Order
  {1f06b3e5-e718-46e1-9a88-15145f312555}, !- Day Schedule Name
  Yes,                                    !- Apply Sunday
  Yes,                                    !- Apply Monday
  Yes,                                    !- Apply Tuesday
  Yes,                                    !- Apply Wednesday
  Yes,                                    !- Apply Thursday
  Yes,                                    !- Apply Friday
  Yes,                                    !- Apply Saturday
  ,                                       !- Apply Holiday
  DateRange,                              !- Date Specification Type
  12,                                     !- Start Month
  1,                                      !- Start Day
  3,                                      !- End Month
  31;                                     !- End Day

OS:Schedule:Day,
  {1f06b3e5-e718-46e1-9a88-15145f312555}, !- Handle
  0800|1800|MidriseApartment|default|clothing |12/1-3/31|Mon/Tue/Wed/Thu/Fri/Sat/Sun, !- Name
  {c7e8a17f-db0f-48e6-bc12-ed35a34dc5df}, !- Schedule Type Limits Name
  ,                                       !- Interpolate to Timestep
  24,                                     !- Hour 1
  0,                                      !- Minute 1
  1.3;                                    !- Value Until Time 1

OS:Schedule:Ruleset,
  {21ddc319-eec1-4fbf-821d-0fdd36f0206c}, !- Handle
  0800|1800|MidriseApartment|Apartment|gas_equip, !- Name
  {37224e87-cab8-4d9b-8949-0eefb3d0e0d2}, !- Schedule Type Limits Name
  {70ce61e4-406f-4443-b7da-cf1971953330}, !- Default Day Schedule Name
  {4a6c2c46-71c2-46f9-b6e0-ce67ea2e8935}, !- Summer Design Day Schedule Name
  {a28e8b98-4caa-4f61-ba0f-a4cde1c07290}; !- Winter Design Day Schedule Name

OS:ScheduleTypeLimits,
  {37224e87-cab8-4d9b-8949-0eefb3d0e0d2}, !- Handle
  Equipment Schedule Type Limits,         !- Name
  0,                                      !- Lower Limit Value {BasedOnField A4}
  1,                                      !- Upper Limit Value {BasedOnField A4}
  Continuous,                             !- Numeric Type
  Dimensionless;                          !- Unit Type

OS:Schedule:Day,
  {70ce61e4-406f-4443-b7da-cf1971953330}, !- Handle
  0800|1800|MidriseApartment|Apartment|gas_equip |default, !- Name
  {37224e87-cab8-4d9b-8949-0eefb3d0e0d2}, !- Schedule Type Limits Name
  ,                                       !- Interpolate to Timestep
  1,                                      !- Hour 1
  0,                                      !- Minute 1
  0.45,                                   !- Value Until Time 1
  2,                                      !- Hour 2
  0,                                      !- Minute 2
  0.41,                                   !- Value Until Time 2
  3,                                      !- Hour 3
  0,                                      !- Minute 3
  0.39,                                   !- Value Until Time 3
  5,                                      !- Hour 4
  0,                                      !- Minute 4
  0.38,                                   !- Value Until Time 4
  6,                                      !- Hour 5
  0,                                      !- Minute 5
  0.43,                                   !- Value Until Time 5
  7,                                      !- Hour 6
  0,                                      !- Minute 6
  0.54,                                   !- Value Until Time 6
  8,                                      !- Hour 7
  0,                                      !- Minute 7
  0.65,                                   !- Value Until Time 7
  9,                                      !- Hour 8
  0,                                      !- Minute 8
  0.66,                                   !- Value Until Time 8
  10,                                     !- Hour 9
  0,                                      !- Minute 9
  0.67,                                   !- Value Until Time 9
  11,                                     !- Hour 10
  0,                                      !- Minute 10
  0.69,                                   !- Value Until Time 10
  12,                                     !- Hour 11
  0,                                      !- Minute 11
  0.7,                                    !- Value Until Time 11
  13,                                     !- Hour 12
  0,                                      !- Minute 12
  0.69,                                   !- Value Until Time 12
  14,                                     !- Hour 13
  0,                                      !- Minute 13
  0.66,                                   !- Value Until Time 13
  15,                                     !- Hour 14
  0,                                      !- Minute 14
  0.65,                                   !- Value Until Time 14
  16,                                     !- Hour 15
  0,                                      !- Minute 15
  0.68,                                   !- Value Until Time 15
  17,                                     !- Hour 16
  0,                                      !- Minute 16
  0.8,                                    !- Value Until Time 16
  19,                                     !- Hour 17
  0,                                      !- Minute 17
  1,                                      !- Value Until Time 17
  20,                                     !- Hour 18
  0,                                      !- Minute 18
  0.93,                                   !- Value Until Time 18
  21,                                     !- Hour 19
  0,                                      !- Minute 19
  0.89,                                   !- Value Until Time 19
  22,                                     !- Hour 20
  0,                                      !- Minute 20
  0.85,                                   !- Value Until Time 20
  23,                                     !- Hour 21
  0,                                      !- Minute 21
  0.71,                                   !- Value Until Time 21
  24,                                     !- Hour 22
  0,                                      !- Minute 22
  0.58;                                   !- Value Until Time 22

OS:Schedule:Day,
  {4a6c2c46-71c2-46f9-b6e0-ce67ea2e8935}, !- Handle
  0800|1800|MidriseApartment|Apartment|gas_equip Summer Design Day, !- Name
  {37224e87-cab8-4d9b-8949-0eefb3d0e0d2}, !- Schedule Type Limits Name
  ,                                       !- Interpolate to Timestep
  24,                                     !- Hour 1
  0,                                      !- Minute 1
  1;                                      !- Value Until Time 1

OS:Schedule:Day,
  {a28e8b98-4caa-4f61-ba0f-a4cde1c07290}, !- Handle
  0800|1800|MidriseApartment|Apartment|gas_equip Winter Design Day, !- Name
  {37224e87-cab8-4d9b-8949-0eefb3d0e0d2}, !- Schedule Type Limits Name
  ,                                       !- Interpolate to Timestep
  24,                                     !- Hour 1
  0,                                      !- Minute 1
  0.38;                                   !- Value Until Time 1

OS:Schedule:Ruleset,
  {939545bf-2d79-405a-a21f-3259ce421755}, !- Handle