
OS:Version,
  {8f4682b4-5cf4-4457-833a-d7483435e5ed}, !- Handle
  1.5.5;                                  !- Version Identifier

OS:ClimateZones,
  {135edfab-17e7-40db-a436-27d385a8cd6d}, !- Handle
  ,                                       !- Active Institution
  ,                                       !- Active Year
  ASHRAE,                                 !- Climate Zone Institution Name 1
  ANSI/ASHRAE Standard 169,               !- Climate Zone Document Name 1
  2006,                                   !- Climate Zone Document Year 1
  ,                                       !- Climate Zone Value 1
  CEC,                                    !- Climate Zone Institution Name 2
  California Climate Zone Descriptions,   !- Climate Zone Document Name 2
  1995,                                   !- Climate Zone Document Year 2
  ;                                       !- Climate Zone Value 2

OS:YearDescription,
  {513d8dda-86cb-442a-b01c-1f7f0e0ac70e}; !- Handle

OS:RadianceParameters,
  {270a96f1-3c86-4b75-a667-cdf22790e2c8}, !- Handle
  1,                                      !- Accumulated Rays per Record
  0,                                      !- Direct Threshold
  1,                                      !- Direct Certainty
  1,                                      !- Direct Jitter
  1,                                      !- Direct Pretest
  6,                                      !- Ambient Bounces VMX
  2,                                      !- Ambient Bounces DMX
  4050,                                   !- Ambient Divisions VMX
  512,                                    !- Ambient Divisions DMX
  256,                                    !- Ambient Supersamples
  0.001,                                  !- Limit Weight VMX
  0.001,                                  !- Limit Weight DMX
  500,                                    !- Klems Sampling Density
  146;                                    !- Sky Discretization Resolution

OS:SimulationControl,
  {2c487a4c-bac9-4ac5-b669-1e49d9da7c2b}, !- Handle
  ,                                       !- Do Zone Sizing Calculation
  ,                                       !- Do System Sizing Calculation
  ,                                       !- Do Plant Sizing Calculation
  No,                                     !- Run Simulation for Sizing Periods
  ,                                       !- Run Simulation for Weather File Run Periods
  0.04,                                   !- Loads Convergence Tolerance Value
  ,                                       !- Temperature Convergence Tolerance Value {deltaC}
  ,                                       !- Solar Distribution
  ,                                       !- Maximum Number of Warmup Days
  2;                                      !- Minimum Number of Warmup Days

OS:Sizing:Parameters,
  {dde5af6f-7923-4600-a28a-7556673a0266}, !- Handle
  1.25,                                   !- Heating Sizing Factor
  1.15;                                   !- Cooling Sizing Factor

OS:ProgramControl,
  {05027a99-f2b3-4aeb-afc6-1425fbb4371d}; !- Handle

OS:Timestep,
  {4ebc9f1e-4707-402e-9844-67eb1ffbd522}, !- Handle
  2;                                      !- Number of Timesteps per Hour

OS:OutputControl:ReportingTolerances,
  {65797aa2-06a9-45fe-b69d-bc6e060399d3}; !- Handle

OS:ConvergenceLimits,
  {9fc11aba-8822-4f3d-970c-46391ba4040d}; !- Handle

OS:ShadowCalculation,
  {ca758bea-4416-4626-9bba-3d8795c79bd6}, !- Handle
  7,                                      !- Calculation Frequency
  15000;                                  !- Maximum Figures in Shadow Overlap Calculations

OS:SurfaceConvectionAlgorithm:Inside,
  {aaabfc36-718a-4ab0-b622-f186ebb45230}, !- Handle
  TARP;                                   !- Algorithm

OS:SurfaceConvectionAlgorithm:Outside,
  {9a0a9f6f-4bbd-4b12-a121-9492a1fcd7d6}, !- Handle
  DOE-2;                                  !- Algorithm

OS:HeatBalanceAlgorithm,
  {9d93e563-e1e0-46d7-9e39-d1c8aceb7212}, !- Handle
  ConductionTransferFunction,             !- Algorithm
  200;                                    !- Surface Temperature Upper Limit {F}

OS:ZoneAirHeatBalanceAlgorithm,
  {8520d93e-310f-4696-9bcd-36228bfdd743}, !- Handle
  AnalyticalSolution;                     !- Algorithm

OS:ZoneAirContaminantBalance,
  {eb5fc3ae-fb22-4160-8fcb-3e3b22b000d3}; !- Handle

OS:ZoneCapacitanceMultiplier:ResearchSpecial,
  {4020ce4f-5a7a-4849-8028-8305d7b751b1}, !- Handle
  ,                                       !- Temperature Capacity Multiplier
  ,                                       !- Humidity Capacity Multiplier
  ;                                       !- Carbon Dioxide Capacity Multiplier

OS:RunPeriod,
  {28df894d-6af9-4fb8-8f56-df1753344aa3}, !- Handle
  Run Period 1,                           !- Name
  1,                                      !- Begin Month
  1,                                      !- Begin Day of Month
  12,                                     !- End Month
  31,                                     !- End Day of Month
  ,                                       !- Use Weather File Holidays and Special Days
  ,                                       !- Use Weather File Daylight Saving Period
  ,                                       !- Apply Weekend Holiday Rule
  ,                                       !- Use Weather File Rain Indicators
  ,                                       !- Use Weather File Snow Indicators
  ;                                       !- Number of Times Runperiod to be Repeated

OS:Building,
  {bf305633-c5a1-4881-9edf-ca5e1a8e1274}, !- Handle
  Building 1,                             !- Name
  ,                                       !- Building Sector Type
  ,                                       !- North Axis {deg}
  ,                                       !- Nominal Floor to Floor Height {m}
  ,                                       !- Space Type Name
  ,                                       !- Default Construction Set Name
  {c610868e-1e3c-4a82-85aa-9b7abcbe95ce}, !- Default Schedule Set Name
  ,                                       !- Standards Number of Stories
  ,                                       !- Standards Number of Above Ground Stories
  Office;                                 !- Standards Building Type

OS:LifeCycleCost:Parameters,
  {231cf8a0-f0e7-4251-a99f-11f0d464e661}, !- Handle
  FEMP,                                   !- Analysis Type
  ,                                       !- Discounting Convention
  ,                                       !- Inflation Approach
  ,                                       !- Real Discount Rate
  ,                                       !- Nominal Discount Rate
  ,                                       !- Inflation
  ,                                       !- Base Date Month
  ,                                       !- Base Date Year
  ,                                       !- Service Date Month
  ,                                       !- Service Date Year
  ,                                       !- Length of Study Period in Years
  ,                                       !- Tax Rate
  ,                                       !- Depreciation Method
  Yes;                                    !- Use NIST Fuel Escalation Rates

OS:Facility,
  {3ba8e45b-b833-44eb-a723-ea6c3946dc96}; !- Handle

OS:SpaceType,
  {9353a127-1763-4973-9277-ea4779e8ab37}, !- Handle
  Office|BlendA|DOE Ref 2004|ASHRAE 169-2006-5A, !- Name
  {327d6053-cf34-455f-81b2-bea1c6d41830}, !- Default Construction Set Name
  ,                                       !- Default Schedule Set Name
  {939275d2-dfa1-4897-8141-2222333eed72}, !- Group Rendering Name
  {c98906a1-4a18-4a4f-a85c-bfe6fb7ef7a8}, !- Design Specification Outdoor Air Object Name
  Office,                                 !- Standards Building Type
  BlendA;                                 !- Standards Space Type

OS:Rendering:Color,
  {939275d2-dfa1-4897-8141-2222333eed72}, !- Handle
  Rendering Color 1,                      !- Name
  120,                                    !- Rendering Red Value
  230,                                    !- Rendering Green Value
  199;                                    !- Rendering Blue Value

OS:SpaceType,
  {255c45d3-5a48-442c-8724-b412da395779}, !- Handle
  Office|BlendB|DOE Ref 2004|ASHRAE 169-2006-5A, !- Name
  {327d6053-cf34-455f-81b2-bea1c6d41830}, !- Default Construction Set Name
  ,                                       !- Default Schedule Set Name
  {2b26e559-653b-4c11-8559-dd07e36ce7d4}, !- Group Rendering Name
  {4be2cd6f-a736-49a7-948a-9c150abc4e3d}, !- Design Specification Outdoor Air Object Name
  Office,                                 !- Standards Building Type
  BlendB;                                 !- Standards Space Type

OS:Rendering:Color,
  {2b26e559-653b-4c11-8559-dd07e36ce7d4}, !- Handle
  Rendering Color 2,                      !- Name
  120,                                    !- Rendering Red Value
  149,                                    !- Rendering Green Value
  230;                                    !- Rendering Blue Value

OS:SpaceType,
  {8b1f12d1-be2f-428a-b538-4863c323f698}, !- Handle
  Office|IT_Room|DOE Ref 2004|ASHRAE 169-2006-5A, !- Name
  {327d6053-cf34-455f-81b2-bea1c6d41830}, !- Default Construction Set Name
  {658a3086-b805-4ee9-97dd-5fbb0bf265d2}, !- Default Schedule Set Name
  {bd3741d9-ef48-4971-9460-ff49e15d6b60}, !- Group Rendering Name
  {021a7648-76ec-4d20-b3bf-c17b03094368}, !- Design Specification Outdoor Air Object Name
  Office,                                 !- Standards Building Type
  IT_Room;                                !- Standards Space Type

OS:Rendering:Color,
  {bd3741d9-ef48-4971-9460-ff49e15d6b60}, !- Handle
  Rendering Color 3,                      !- Name
  41,                                     !- Rendering Red Value
  31,                                     !- Rendering Green Value
  169;                                    !- Rendering Blue Value

OS:SpaceType,
  {048ccf19-0de5-4c24-b2da-4647773c468d}, !- Handle
  Office|Elec/MechRoom|DOE Ref 2004|ASHRAE 169-2006-5A, !- Name
  {327d6053-cf34-455f-81b2-bea1c6d41830}, !- Default Construction Set Name
  {224546d5-509c-42c8-aa22-be6dff826b77}, !- Default Schedule Set Name
  {94a2a059-98c5-4d7d-9188-d8b9be9a238e}, !- Group Rendering Name
  {cb143403-7740-4057-ad18-cae454231536}, !- Design Specification Outdoor Air Object Name
  Office,                                 !- Standards Building Type
  Elec/MechRoom;                          !- Standards Space Type

OS:Rendering:Color,
  {94a2a059-98c5-4d7d-9188-d8b9be9a238e}, !- Handle
  Rendering Color 4,                      !- Name
  41,                                     !- Rendering Red Value
  31,                                     !- Rendering Green Value
  169;                                    !- Rendering Blue Value

OS:SpaceType,
  {bf139980-9b4a-4447-a486-4f0a391aad31}, !- Handle
  Office|PrintRoom|DOE Ref 2004|ASHRAE 169-2006-5A, !- Name
  {327d6053-cf34-455f-81b2-bea1c6d41830}, !- Default Construction Set Name
  {4e94345e-6556-480c-88aa-f88c82c2cf16}, !- Default Schedule Set Name
  {1569c6c5-5216-4c9b-9035-9f32c35d5b82}, !- Group Rendering Name
  {9e9a407c-f623-4723-bb41-05579864d8f0}, !- Design Specification Outdoor Air Object Name
  Office,                                 !- Standards Building Type
  PrintRoom;                              !- Standards Space Type

OS:Rendering:Color,
  {1569c6c5-5216-4c9b-9035-9f32c35d5b82}, !- Handle
  Rendering Color 5,                      !- Name
  41,                                     !- Rendering Red Value
  31,                                     !- Rendering Green Value
  169;                                    !- Rendering Blue Value

OS:SpaceType,
  {463297c7-3707-4a1c-8c0a-fd484fdc4c26}, !- Handle
  Office|Restroom|DOE Ref 2004|ASHRAE 169-2006-5A, !- Name
  {327d6053-cf34-455f-81b2-bea1c6d41830}, !- Default Construction Set Name
  {e6c6e62c-ec97-4d78-8733-70c453ffd7c3}, !- Default Schedule Set Name
  {e61c8407-3e04-43ee-be70-5969df90ed3f}, !- Group Rendering Name
  {19df50af-8ecf-4961-b5a9-d4ac551b2b9b}, !- Design Specification Outdoor Air Object Name
  Office,                                 !- Standards Building Type
  Restroom;                               !- Standards Space Type

OS:Rendering:Color,
  {e61c8407-3e04-43ee-be70-5969df90ed3f}, !- Handle
  Rendering Color 6,                      !- Name
  169,                                    !- Rendering Red Value
  169,                                    !- Rendering Green Value
  31;                                     !- Rendering Blue Value

OS:Schedule:Ruleset,
  {cd6f9479-6de4-41d7-9ed4-ad55dcaa4b63}, !- Handle
  0800|1700|Office|default|hoo,           !- Name
  {2260bd69-0f13-4c09-a59b-2e40df8539be}, !- Schedule Type Limits Name
  {e4082600-f27c-4f0e-baf1-34bc7e5e8e58}, !- Default Day Schedule Name
  {d278fde9-e2f4-4ec2-b953-296d95418bc5}, !- Summer Design Day Schedule Name
  {c09b08dd-3c18-479c-83c6-d40cfaec722c}; !- Winter Design Day Schedule Name

OS:Schedule:Day,
  {e4082600-f27c-4f0e-baf1-34bc7e5e8e58}, !- Handle
  0800|1700|Office|default|hoo Schedule Week Day, !- Name
  {2260bd69-0f13-4c09-a59b-2e40df8539be}, !- Schedule Type Limits Name
  ,                                       !- Interpolate to Timestep
  8,                                      !- Hour 1
  0,                                      !- Minute 1
  0,                                      !- Value Until Time 1
  17,                                     !- Hour 2
  0,                                      !- Minute 2
  1,                                      !- Value Until Time 2
  24,                                     !- Hour 3
  0,                                      !- Minute 3
  0;                                      !- Value Until Time 3

OS:Schedule:Day,
  {8ec737c3-4d9e-4fb3-9fbd-0da03b0dfe99}, !- Handle
  Schedule Day 2,                         !- Name
  ,                                       !- Schedule Type Limits Name
  ,                                       !- Interpolate to Timestep
  24,                                     !- Hour 1
  0,                                      !- Minute 1
  0;                                      !- Value Until Time 1

OS:Schedule:Day,
  {c09b08dd-3c18-479c-83c6-d40cfaec722c}, !- Handle
  0800|1700|Office|default|hoo Winter Design Day, !- Name
  {2260bd69-0f13-4c09-a59b-2e40df8539be}, !- Schedule Type Limits Name
  ,                                       !- Interpolate to Timestep
  24,                                     !- Hour 1
  0,                                      !- Minute 1
  0;                                      !- Value Until Time 1

OS:Schedule:Day,
  {cc7d7e7d-be8e-41c5-9178-7e84b36c8f1d}, !- Handle
  Schedule Day 3,                         !- Name
  ,                                       !- Schedule Type Limits Name
  ,                                       !- Interpolate to Timestep
  24,                                     !- Hour 1
  0,                                      !- Minute 1
  0;                                      !- Value Until Time 1

OS:Schedule:Day,
  {d278fde9-e2f4-4ec2-b953-296d95418bc5}, !- Handle
  0800|1700|Office|default|hoo Summer Design Day, !- Name
  {2260bd69-0f13-4c09-a59b-2e40df8539be}, !- Schedule Type Limits Name
  ,                                       !- Interpolate to Timestep
  24,                                     !- Hour 1
  0,                                      !- Minute 1
  1;                                      !- Value Until Time 1

OS:DefaultScheduleSet,
  {c610868e-1e3c-4a82-85aa-9b7abcbe95ce}, !- Handle
  Building Hours of Operation,            !- Name
  {cd6f9479-6de4-41d7-9ed4-ad55dcaa4b63}, !- Hours of Operation Schedule Name
  ,                                       !- Number of People Schedule Name
  ,                                       !- People Activity Level Schedule Name
  ,                                       !- Lighting Schedule Name
  ,                                       !- Electric Equipment Schedule Name
  ,                                       !- Gas Equipment Schedule Name
  ,                                       !- Hot Water Equipment Schedule Name
  ,                                       !- Infiltration Schedule Name
  ,                                       !- Steam Equipment Schedule Name
  ;                                       !- Other Equipment Schedule Name

OS:ScheduleTypeLimits,
  {2260bd69-0f13-4c09-a59b-2e40df8539be}, !- Handle
  OnOff,                                  !- Name
  0,                                      !- Lower Limit Value {BasedOnField A4}
  1,                                      !- Upper Limit Value {BasedOnField A4}
  Discrete,                               !- Numeric Type
  Availability;                           !- Unit Type

OS:Schedule:Ruleset,
  {2b9ad2e6-a26a-4b7a-aa7c-7b5473ebff63}, !- Handle
  0800|1700|Office|default|occ,           !- Name
  {992a297d-a9b8-4346-abe2-b5175ee493a4}, !- Schedule Type Limits Name
  {c789b076-eedf-4b0b-b668-609f02473c4b}, !- Default Day Schedule Name
  {e0d7c98f-7604-49a9-9a73-c96566e4379d}, !- Summer Design Day Schedule Name
  {38ca455c-df82-4e8f-92dd-7043f4e20ca2}; !- Winter Design Day Schedule Name

OS:ScheduleTypeLimits,
  {992a297d-a9b8-4346-abe2-b5175ee493a4}, !- Handle
  Occupancy Schedule Type Limits,         !- Name
  0,                                      !- Lower Limit Value {BasedOnField A4}
  1,                                      !- Upper Limit Value {BasedOnField A4}
  Continuous,                             !- Numeric Type
  Dimensionless;                          !- Unit Type

OS:Schedule:Day,
  {c789b076-eedf-4b0b-b668-609f02473c4b}, !- Handle
  0800|1700|Office|default|occ |default,  !- Name
  {992a297d-a9b8-4346-abe2-b5175ee493a4}, !- Schedule Type Limits Name
  ,                                       !- Interpolate to Timestep
  5,                                      !- Hour 1
  0,                                      !- Minute 1
  0,                                      !- Value Until Time 1
  5,                                      !- Hour 2
  30,                                     !- Minute 2
  0.07,                                   !- Value Until Time 2
  6,                                      !- Hour 3
  0,                                      !- Minute 3
  0.13,                                   !- Value Until Time 3
  6,                                      !- Hour 4
  30,                                     !- Minute 4
  0.2,                                    !- Value Until Time 4
  7,                                      !- Hour 5
  0,                                      !- Minute 5
  0.27,                                   !- Value Until Time 5
  7,                                      !- Hour 6
  30,                                     !- Minute 6
  0.33,                                   !- Value Until Time 6
  21,                                     !- Hour 7
  0,                                      !- Minute 7
  0.4,                                    !- Value Until Time 7
  21,                                     !- Hour 8
  30,                                     !- Minute 8
  0.2,                                    !- Value Until Time 8
  24,                                     !- Hour 9
  0,                                      !- Minute 9
  0;                                      !- Value Until Time 9

OS:Schedule:Day,
  {e0d7c98f-7604-49a9-9a73-c96566e4379d}, !- Handle
  0800|1700|Office|default|occ Summer Design Day, !- Name
  {992a297d-a9b8-4346-abe2-b5175ee493a4}, !- Schedule Type Limits Name
  ,                                       !- Interpolate to Timestep
  5,                                      !- Hour 1
  0,                                      !- Minute 1
  0,                                      !- Value Until Time 1
  5,                                      !- Hour 2
  30,                                     !- Minute 2
  0.07,                                   !- Value Until Time 2
  6,                                      !- Hour 3
  0,                                      !- Minute 3
  0.13,                                   !- Value Until Time 3
  6,                                      !- Hour 4
  30,                                     !- Minute 4
  0.2,                                    !- Value Until Time 4
  7,                                      !- Hour 5
  0,                                      !- Minute 5
  0.27,                                   !- Value Until Time 5
  21,                                     !- Hour 6
  0,                                      !- Minute 6
  1,                                      !- Value Until Time 6
  21,                                     !- Hour 7
  30,                                     !- Minute 7
  0.2,                                    !- Value Until Time 7
  24,                                     !- Hour 8
  0,                                      !- Minute 8
  0;                                      !- Value Until Time 8

OS:Schedule:Day,
  {38ca455c-df82-4e8f-92dd-7043f4e20ca2}, !- Handle
  0800|1700|Office|default|occ Winter Design Day, !- Name
  {992a297d-a9b8-4346-abe2-b5175ee493a4}, !- Schedule Type Limits Name
  ,                                       !- Interpolate to Timestep
  24,                                     !- Hour 1
  0,                                      !- Minute 1
  0;                                      !- Value Until Time 1

OS:Schedule:Rule,
  {ae092537-972a-489d-a262-e32c7b8aed94}, !- Handle
  0800|1700|Office|default|occ |1/1-12/31|Sun Rule, !- Name
  {2b9ad2e6-a26a-4b7a-aa7c-7b5473ebff63}, !- Schedule Ruleset Name
  0,                                      !- Rule Order
  {6c28475c-0c5f-4209-9101-a2c0bb4acec9}, !- Day Schedule Name
  Yes,                                    !- Apply Sunday
  ,                                       !- Apply Monday
  ,                                       !- Apply Tuesday
  ,                                       !- Apply Wednesday
  ,                                       !- Apply Thursday
  ,                                       !- Apply Friday
  ,                                       !- Apply Saturday
  ,                                       !- Apply Holiday
  DateRange,                              !- Date Specification Type
  1,                                      !- Start Month
  1,                                      !- Start Day
  12,                                     !- End Month
  31;                                     !- End Day

OS:Schedule:Day,
  {6c28475c-0c5f-4209-9101-a2c0bb4acec9}, !- Handle
  0800|1700|Office|default|occ |1/1-12/31|Sun, !- Name
  {992a297d-a9b8-4346-abe2-b5175ee493a4}, !- Schedule Type Limits Name
  ,                                       !- Interpolate to Timestep
  24,                                     !- Hour 1
  0,                                      !- Minute 1
  0;                                      !- Value Until Time 1

OS:Schedule:Rule,
  {f5c690d5-2f7a-4d17-bdf6-7c70e8e3c77f}, !- Handle
  0800|1700|Office|default|occ |1/1-12/31|Sat Rule, !- Name
  {2b9ad2e6-a26a-4b7a-aa7c-7b5473ebff63}, !- Schedule Ruleset Name
  1,                                      !- Rule Order
  {b30742bf-4795-4c10-9fc1-43fcbc72faa6}, !- Day Schedule Name
  ,                                       !- Apply Sunday
  ,                                       !- Apply Monday
  ,                                       !- Apply Tuesday
  ,                                       !- Apply Wednesday
  ,                                       !- Apply Thursday
  ,                                       !- Apply Friday
  Yes,                                    !- Apply Saturday
  ,                                       !- Apply Holiday
  DateRange,                              !- Date Specification Type
  1,                                      !- Start Month
  1,                                      !- Start Day
  12,                                     !- End Month
  31;                                     !- End Day

OS:Schedule:Day,
  {b30742bf-4795-4c10-9fc1-43fcbc72faa6}, !- Handle
  0800|1700|Office|default|occ |1/1-12/31|Sat, !- Name
  {992a297d-a9b8-4346-abe2-b5175ee493a4}, !- Schedule Type Limits Name
  ,                                       !- Interpolate to Timestep
  5,                                      !- Hour 1
  0,                                      !- Minute 1
  0,                                      !- Value Until Time 1
  5,                                      !- Hour 2
  30,                                     !- Minute 2
  0.04,                                   !- Value Until Time 2
  6,                                      !- Hour 3
  0,                                      !- Minute 3
  0.08,                                   !- Value Until Time 3
  6,                                      !- Hour 4
  30,                                     !- Minute 4
  0.13,                                   !- Value Until Time 4
  7,                                      !- Hour 5
  0,                                      !- Minute 5
  0.17,                                   !- Value Until Time 5
  7,                                      !- Hour 6
  30,                                     !- Minute 6
  0.21,                                   !- Value Until Time 6
  14,                                     !- Hour 7
  0,                                      !- Minute 7
  0.25,                                   !- Value Until Time 7
  14,                                     !- Hour 8
  30,                                     !- Minute 8
  0.22,                                   !- Value Until Time 8
  15,                                     !- Hour 9
  0,                                      !- Minute 9
  0.19,                                   !- Value Until Time 9
  15,                                     !- Hour 10
  30,                                     !- Minute 10
  0.16,                                   !- Value Until Time 10
  16,                                     !- Hour 11
  0,                                      !- Minute 11
  0.13,                                   !- Value Until Time 11
  16,                                     !- Hour 12
  30,                                     !- Minute 12
  0.09,                                   !- Value Until Time 12
  17,                                     !- Hour 13
  0,                                      !- Minute 13
  0.06,                                   !- Value Until Time 13
  17,                                     !- Hour 14
  30,                                     !- Minute 14
  0.03,                                   !- Value Until Time 14
  24,                                     !- Hour 15
  0,                                      !- Minute 15
  0;                                      !- Value Until Time 15

OS:Schedule:Ruleset,
  {667ae6d7-b81a-41d7-ac80-81ebebe59325}, !- Handle
  0800|1700|Office|default|activity,      !- Name
  {d562ef91-bcd0-4bbd-8c08-ed3cc0046867}, !- Schedule Type Limits Name
  {c681e185-c9b9-42e2-8296-481acc5d1af3}, !- Default Day Schedule Name
  {368b847c-4833-43be-92be-c229efd6ea5a}, !- Summer Design Day Schedule Name
  {828e0892-bc85-4eee-92f0-14756db46085}; !- Winter Design Day Schedule Name

OS:ScheduleTypeLimits,
  {d562ef91-bcd0-4bbd-8c08-ed3cc0046867}, !- Handle
  People Activity Type Limits,            !- Name
  0,                                      !- Lower Limit Value {BasedOnField A4}
  ,                                       !- Upper Limit Value {BasedOnField A4}
  Continuous,                             !- Numeric Type
  ActivityLevel;                          !- Unit Type

OS:Schedule:Day,
  {c681e185-c9b9-42e2-8296-481acc5d1af3}, !- Handle
  0800|1700|Office|default|activity |default, !- Name
  {d562ef91-bcd0-4bbd-8c08-ed3cc0046867}, !- Schedule Type Limits Name
  ,                                       !- Interpolate to Timestep
  24,                                     !- Hour 1
  0,                                      !- Minute 1
  120;                                    !- Value Until Time 1

OS:Schedule:Day,
  {368b847c-4833-43be-92be-c229efd6ea5a}, !- Handle
  0800|1700|Office|default|activity Summer Design Day, !- Name
  {d562ef91-bcd0-4bbd-8c08-ed3cc0046867}, !- Schedule Type Limits Name
  ,                                       !- Interpolate to Timestep
  24,                                     !- Hour 1
  0,                                      !- Minute 1
  120;                                    !- Value Until Time 1

OS:Schedule:Day,
  {828e0892-bc85-4eee-92f0-14756db46085}, !- Handle
  0800|1700|Office|default|activity Winter Design Day, !- Name
  {d562ef91-bcd0-4bbd-8c08-ed3cc0046867}, !- Schedule Type Limits Name
  ,                                       !- Interpolate to Timestep
  24,                                     !- Hour 1
  0,                                      !- Minute 1
  120;                                    !- Value Until Time 1

OS:Schedule:Ruleset,
  {fc87bf98-ec30-4871-a68c-d67645654a6d}, !- Handle
  0800|1700|Office|default|elec_equip,    !- Name
  {9fd75867-5b3f-4bde-972d-8a021b60dbe2}, !- Schedule Type Limits Name
  {813d6f83-61c0-44da-bb9c-7e15cc06913b}, !- Default Day Schedule Name
  {cb628cc4-88d9-457d-a9c7-e6f4cf58dc29}, !- Summer Design Day Schedule Name
  {298fd09d-e081-4767-899b-7c062583686a}; !- Winter Design Day Schedule Name

OS:ScheduleTypeLimits,
  {9fd75867-5b3f-4bde-972d-8a021b60dbe2}, !- Handle
  Equipment Schedule Type Limits,         !- Name
  0,                                      !- Lower Limit Value {BasedOnField A4}
  1,                                      !- Upper Limit Value {BasedOnField A4}
  Continuous,                             !- Numeric Type
  Dimensionless;                          !- Unit Type

OS:Schedule:Day,
  {813d6f83-61c0-44da-bb9c-7e15cc06913b}, !- Handle