
OS:Version,
  {56b91a15-e64c-4d2f-80cd-f6e31c2cffd8}, !- Handle
  1.5.5;                                  !- Version Identifier

OS:ClimateZones,
  {135edfab-17e7-40db-a436-27d385a8cd6d}, !- Handle
  ,                                       !- Active Institution
  ,                                       !- Active Year
  ASHRAE,                                 !- Climate Zone Institution Name 1
  ANSI/ASHRAE Standard 169,               !- Climate Zone Document Name 1
  2006,                                   !- Climate Zone Document Year 1
  ,                                       !- Climate Zone Value 1
  CEC,                                    !- Climate Zone Institution Name 2
  California Climate Zone Descriptions,   !- Climate Zone Document Name 2
  1995,                                   !- Climate Zone Document Year 2
  ;                                       !- Climate Zone Value 2

OS:YearDescription,
  {513d8dda-86cb-442a-b01c-1f7f0e0ac70e}; !- Handle

OS:RadianceParameters,
  {270a96f1-3c86-4b75-a667-cdf22790e2c8}, !- Handle
  1,                                      !- Accumulated Rays per Record
  0,                                      !- Direct Threshold
  1,                                      !- Direct Certainty
  1,                                      !- Direct Jitter
  1,                                      !- Direct Pretest
  6,                                      !- Ambient Bounces VMX
  2,                                      !- Ambient Bounces DMX
  4050,                                   !- Ambient Divisions VMX
  512,                                    !- Ambient Divisions DMX
  256,                                    !- Ambient Supersamples
  0.001,                                  !- Limit Weight VMX
  0.001,                                  !- Limit Weight DMX
  500,                                    !- Klems Sampling Density
  146;                                    !- Sky Discretization Resolution

OS:SimulationControl,
  {2c487a4c-bac9-4ac5-b669-1e49d9da7c2b}, !- Handle
  ,                                       !- Do Zone Sizing Calculation
  ,                                       !- Do System Sizing Calculation
  ,                                       !- Do Plant Sizing Calculation
  No,                                     !- Run Simulation for Sizing Periods
  ,                                       !- Run Simulation for Weather File Run Periods
  0.04,                                   !- Loads Convergence Tolerance Value
  ,                                       !- Temperature Convergence Tolerance Value {deltaC}
  ,                                       !- Solar Distribution
  ,                                       !- Maximum Number of Warmup Days
  2;                                      !- Minimum Number of Warmup Days

OS:Sizing:Parameters,
  {dde5af6f-7923-4600-a28a-7556673a0266}, !- Handle
  1.25,                                   !- Heating Sizing Factor
  1.15;                                   !- Cooling Sizing Factor

OS:ProgramControl,
  {05027a99-f2b3-4aeb-afc6-1425fbb4371d}; !- Handle

OS:Timestep,
  {4ebc9f1e-4707-402e-9844-67eb1ffbd522}, !- Handle
  2;                                      !- Number of Timesteps per Hour

OS:OutputControl:ReportingTolerances,
  {65797aa2-06a9-45fe-b69d-bc6e060399d3}; !- Handle

OS:ConvergenceLimits,
  {9fc11aba-8822-4f3d-970c-46391ba4040d}; !- Handle

OS:ShadowCalculation,
  {ca758bea-4416-4626-9bba-3d8795c79bd6}, !- Handle
  7,                                      !- Calculation Frequency
  15000;                                  !- Maximum Figures in Shadow Overlap Calculations

OS:SurfaceConvectionAlgorithm:Inside,
  {aaabfc36-718a-4ab0-b622-f186ebb45230}, !- Handle
  TARP;                                   !- Algorithm

OS:SurfaceConvectionAlgorithm:Outside,
  {9a0a9f6f-4bbd-4b12-a121-9492a1fcd7d6}, !- Handle
  DOE-2;                                  !- Algorithm

OS:HeatBalanceAlgorithm,
  {9d93e563-e1e0-46d7-9e39-d1c8aceb7212}, !- Handle
  ConductionTransferFunction,             !- Algorithm
  200;                                    !- Surface Temperature Upper Limit {F}

OS:ZoneAirHeatBalanceAlgorithm,
  {8520d93e-310f-4696-9bcd-36228bfdd743}, !- Handle
  AnalyticalSolution;                     !- Algorithm

OS:ZoneAirContaminantBalance,
  {eb5fc3ae-fb22-4160-8fcb-3e3b22b000d3}; !- Handle

OS:ZoneCapacitanceMultiplier:ResearchSpecial,
  {4020ce4f-5a7a-4849-8028-8305d7b751b1}, !- Handle
  ,                                       !- Temperature Capacity Multiplier
  ,                                       !- Humidity Capacity Multiplier
  ;                                       !- Carbon Dioxide Capacity Multiplier

OS:RunPeriod,
  {28df894d-6af9-4fb8-8f56-df1753344aa3}, !- Handle
  Run Period 1,                           !- Name
  1,                                      !- Begin Month
  1,                                      !- Begin Day of Month
  12,                                     !- End Month
  31,                                     !- End Day of Month
  ,                                       !- Use Weather File Holidays and Special Days
  ,                                       !- Use Weather File Daylight Saving Period
  ,                                       !- Apply Weekend Holiday Rule
  ,                                       !- Use Weather File Rain Indicators
  ,                                       !- Use Weather File Snow Indicators
  ;                                       !- Number of Times Runperiod to be Repeated

OS:Building,
  {bf305633-c5a1-4881-9edf-ca5e1a8e1274}, !- Handle
  Building 1,                             !- Name
  ,                                       !- Building Sector Type
  ,                                       !- North Axis {deg}
  ,                                       !- Nominal Floor to Floor Height {m}
  ,                                       !- Space Type Name
  ,                                       !- Default Construction Set Name
  {c86d3ad5-bd19-4371-9f23-f31d2cfdc039}, !- Default Schedule Set Name
  ,                                       !- Standards Number of Stories
  ,                                       !- Standards Number of Above Ground Stories
  Office;                                 !- Standards Building Type

OS:LifeCycleCost:Parameters,
  {231cf8a0-f0e7-4251-a99f-11f0d464e661}, !- Handle
  FEMP,                                   !- Analysis Type
  ,                                       !- Discounting Convention
  ,                                       !- Inflation Approach
  ,                                       !- Real Discount Rate
  ,                                       !- Nominal Discount Rate
  ,                                       !- Inflation
  ,                                       !- Base Date Month
  ,                                       !- Base Date Year
  ,                                       !- Service Date Month
  ,                                       !- Service Date Year
  ,                                       !- Length of Study Period in Years
  ,                                       !- Tax Rate
  ,                                       !- Depreciation Method
  Yes;                                    !- Use NIST Fuel Escalation Rates

OS:Facility,
  {3ba8e45b-b833-44eb-a723-ea6c3946dc96}; !- Handle

OS:SpaceType,
  {9af65367-4b1f-4258-a4d6-4830b39eca8e}, !- Handle
  Office|BlendA|DOE Ref 2004|ASHRAE 169-2006-5A, !- Name
  {67f9e279-65a4-451d-95ed-b5d4f1bed5ad}, !- Default Construction Set Name
  ,                                       !- Default Schedule Set Name
  {1cf5d3f1-f857-4a7c-ae30-a04d85571426}, !- Group Rendering Name
  {74fe084d-e87e-45c1-8c41-2d50ec7da4c6}, !- Design Specification Outdoor Air Object Name
  Office,                                 !- Standards Building Type
  BlendA;                                 !- Standards Space Type

OS:Rendering:Color,
  {1cf5d3f1-f857-4a7c-ae30-a04d85571426}, !- Handle
  Rendering Color 1,                      !- Name
  120,                                    !- Rendering Red Value
  230,                                    !- Rendering Green Value
  199;                                    !- Rendering Blue Value

OS:SpaceType,
  {c3c34a66-dd02-4ae0-9868-f79f0b6dde69}, !- Handle
  Office|BlendB|DOE Ref 2004|ASHRAE 169-2006-5A, !- Name
  {67f9e279-65a4-451d-95ed-b5d4f1bed5ad}, !- Default Construction Set Name
  ,                                       !- Default Schedule Set Name
  {42d84f72-8b6d-44d8-b4be-2deea9d1e8c0}, !- Group Rendering Name
  {0fa34814-1e07-4764-be9c-9ff0e0ec13bf}, !- Design Specification Outdoor Air Object Name
  Office,                                 !- Standards Building Type
  BlendB;                                 !- Standards Space Type

OS:Rendering:Color,
  {42d84f72-8b6d-44d8-b4be-2deea9d1e8c0}, !- Handle
  Rendering Color 2,                      !- Name
  120,                                    !- Rendering Red Value
  149,                                    !- Rendering Green Value
  230;                                    !- Rendering Blue Value

OS:SpaceType,
  {5387fe74-6722-488c-a1f9-69387a3100f8}, !- Handle
  Office|BlendC|DOE Ref 2004|ASHRAE 169-2006-5A, !- Name
  {67f9e279-65a4-451d-95ed-b5d4f1bed5ad}, !- Default Construction Set Name
  ,                                       !- Default Schedule Set Name
  {9530aed3-9a31-42bb-859f-6c03493214ab}, !- Group Rendering Name
  {0804b9dc-9d85-4f85-b7d3-1ce4029d6e74}, !- Design Specification Outdoor Air Object Name
  Office,                                 !- Standards Building Type
  BlendC;                                 !- Standards Space Type

OS:Rendering:Color,
  {9530aed3-9a31-42bb-859f-6c03493214ab}, !- Handle
  Rendering Color 3,                      !- Name
  41,                                     !- Rendering Red Value
  31,                                     !- Rendering Green Value
  169;                                    !- Rendering Blue Value

OS:SpaceType,
  {24afc2c6-ffbd-49e3-abd7-9502b8ca323f}, !- Handle
  Office|Restroom|DOE Ref 2004|ASHRAE 169-2006-5A, !- Name
  {67f9e279-65a4-451d-95ed-b5d4f1bed5ad}, !- Default Construction Set Name
  {716bafa0-ca61-44ce-b1c1-e3b652f8045b}, !- Default Schedule Set Name
  {4a678f77-c217-480f-84bb-991f2158bcd6}, !- Group Rendering Name
  {f1f298c3-21b7-4918-b015-0d663e9413b7}, !- Design Specification Outdoor Air Object Name
  Office,                                 !- Standards Building Type
  Restroom;                               !- Standards Space Type

OS:Rendering:Color,
  {4a678f77-c217-480f-84bb-991f2158bcd6}, !- Handle
  Rendering Color 4,                      !- Name
  169,                                    !- Rendering Red Value
  169,                                    !- Rendering Green Value
  31;                                     !- Rendering Blue Value

OS:Schedule:Ruleset,
  {88d3f50b-2dff-49c3-a7fc-335bc448a8f4}, !- Handle
  0800|1700|Office|default|hoo,           !- Name
  {bb8e3df8-c9aa-40f2-965d-bfbca50a1b53}, !- Schedule Type Limits Name
  {6b461fc1-f909-4fb0-bc0e-7161593815de}, !- Default Day Schedule Name
  {af39870a-9a93-4c6b-a112-c4125ad1cb05}, !- Summer Design Day Schedule Name
  {5d8ec2e5-03ba-4df7-85b3-ac4f9c09f5d3}; !- Winter Design Day Schedule Name

OS:Schedule:Day,
  {6b461fc1-f909-4fb0-bc0e-7161593815de}, !- Handle
  0800|1700|Office|default|hoo Schedule Week Day, !- Name
  {bb8e3df8-c9aa-40f2-965d-bfbca50a1b53}, !- Schedule Type Limits Name
  ,                                       !- Interpolate to Timestep
  8,                                      !- Hour 1
  0,                                      !- Minute 1
  0,                                      !- Value Until Time 1
  17,                                     !- Hour 2
  0,                                      !- Minute 2
  1,                                      !- Value Until Time 2
  24,                                     !- Hour 3
  0,                                      !- Minute 3
  0;                                      !- Value Until Time 3

OS:Schedule:Day,
  {068b6604-1938-473f-9dff-b9b009ef2a9e}, !- Handle
  Schedule Day 2,                         !- Name
  ,                                       !- Schedule Type Limits Name
  ,                                       !- Interpolate to Timestep
  24,                                     !- Hour 1
  0,                                      !- Minute 1
  0;                                      !- Value Until Time 1

OS:Schedule:Day,
  {5d8ec2e5-03ba-4df7-85b3-ac4f9c09f5d3}, !- Handle
  0800|1700|Office|default|hoo Winter Design Day, !- Name
  {bb8e3df8-c9aa-40f2-965d-bfbca50a1b53}, !- Schedule Type Limits Name
  ,                                       !- Interpolate to Timestep
  24,                                     !- Hour 1
  0,                                      !- Minute 1
  0;                                      !- Value Until Time 1

OS:Schedule:Day,
  {1ea6f86d-857d-4548-a91a-27de5c4fa202}, !- Handle
  Schedule Day 3,                         !- Name
  ,                                       !- Schedule Type Limits Name
  ,                                       !- Interpolate to Timestep
  24,                                     !- Hour 1
  0,                                      !- Minute 1
  0;                                      !- Value Until Time 1

OS:Schedule:Day,
  {af39870a-9a93-4c6b-a112-c4125ad1cb05}, !- Handle
  0800|1700|Office|default|hoo Summer Design Day, !- Name
  {bb8e3df8-c9aa-40f2-965d-bfbca50a1b53}, !- Schedule Type Limits Name
  ,                                       !- Interpolate to Timestep
  24,                                     !- Hour 1
  0,                                      !- Minute 1
  1;                                      !- Value Until Time 1

OS:DefaultScheduleSet,
  {c86d3ad5-bd19-4371-9f23-f31d2cfdc039}, !- Handle
  Building Hours of Operation,            !- Name
  {88d3f50b-2dff-49c3-a7fc-335bc448a8f4}, !- Hours of Operation Schedule Name
  ,                                       !- Number of People Schedule Name
  ,                                       !- People Activity Level Schedule Name
  ,                                       !- Lighting Schedule Name
  ,                                       !- Electric Equipment Schedule Name
  ,                                       !- Gas Equipment Schedule Name
  ,                                       !- Hot Water Equipment Schedule Name
  ,                                       !- Infiltration Schedule Name
  ,                                       !- Steam Equipment Schedule Name
  ;                                       !- Other Equipment Schedule Name

OS:ScheduleTypeLimits,
  {bb8e3df8-c9aa-40f2-965d-bfbca50a1b53}, !- Handle
  OnOff,                                  !- Name
  0,                                      !- Lower Limit Value {BasedOnField A4}
  1,                                      !- Upper Limit Value {BasedOnField A4}
  Discrete,                               !- Numeric Type
  Availability;                           !- Unit Type

OS:Schedule:Ruleset,
  {38c06f68-3f2f-4d27-b80b-974b42a8513c}, !- Handle
  0800|1700|Office|default|occ,           !- Name
  {f137ae54-9e82-4eba-b2b4-02199de5283c}, !- Schedule Type Limits Name
  {808791d8-836e-4f67-bfaf-5abded953f38}, !- Default Day Schedule Name
  {8dd61651-3dde-4393-9fe3-48c2b8fbec9f}, !- Summer Design Day Schedule Name
  {5b1b23f9-c7e0-4b78-9a64-d2d75741848f}; !- Winter Design Day Schedule Name

OS:ScheduleTypeLimits,
  {f137ae54-9e82-4eba-b2b4-02199de5283c}, !- Handle
  Occupancy Schedule Type Limits,         !- Name
  0,                                      !- Lower Limit Value {BasedOnField A4}
  1,                                      !- Upper Limit Value {BasedOnField A4}
  Continuous,                             !- Numeric Type
  Dimensionless;                          !- Unit Type

OS:Schedule:Day,
  {808791d8-836e-4f67-bfaf-5abded953f38}, !- Handle
  0800|1700|Office|default|occ |default,  !- Name
  {f137ae54-9e82-4eba-b2b4-02199de5283c}, !- Schedule Type Limits Name
  ,                                       !- Interpolate to Timestep
  5,                                      !- Hour 1
  0,                                      !- Minute 1
  0,                                      !- Value Until Time 1
  5,                                      !- Hour 2
  30,                                     !- Minute 2
  0.07,                                   !- Value Until Time 2
  6,                                      !- Hour 3
  0,                                      !- Minute 3
  0.13,                                   !- Value Until Time 3
  6,                                      !- Hour 4
  30,                                     !- Minute 4
  0.2,                                    !- Value Until Time 4
  7,                                      !- Hour 5
  0,                                      !- Minute 5
  0.27,                                   !- Value Until Time 5
  7,                                      !- Hour 6
  30,                                     !- Minute 6
  0.33,                                   !- Value Until Time 6
  21,                                     !- Hour 7
  0,                                      !- Minute 7
  0.4,                                    !- Value Until Time 7
  21,                                     !- Hour 8
  30,                                     !- Minute 8
  0.2,                                    !- Value Until Time 8
  24,                                     !- Hour 9
  0,                                      !- Minute 9
  0;                                      !- Value Until Time 9

OS:Schedule:Day,
  {8dd61651-3dde-4393-9fe3-48c2b8fbec9f}, !- Handle
  0800|1700|Office|default|occ Summer Design Day, !- Name
  {f137ae54-9e82-4eba-b2b4-02199de5283c}, !- Schedule Type Limits Name
  ,                                       !- Interpolate to Timestep
  5,                                      !- Hour 1
  0,                                      !- Minute 1
  0,                                      !- Value Until Time 1
  5,                                      !- Hour 2
  30,                                     !- Minute 2
  0.07,                                   !- Value Until Time 2
  6,                                      !- Hour 3
  0,                                      !- Minute 3
  0.13,                                   !- Value Until Time 3
  6,                                      !- Hour 4
  30,                                     !- Minute 4
  0.2,                                    !- Value Until Time 4
  7,                                      !- Hour 5
  0,                                      !- Minute 5
  0.27,                                   !- Value Until Time 5
  21,                                     !- Hour 6
  0,                                      !- Minute 6
  1,                                      !- Value Until Time 6
  21,                                     !- Hour 7
  30,                                     !- Minute 7
  0.2,                                    !- Value Until Time 7
  24,                                     !- Hour 8
  0,                                      !- Minute 8
  0;                                      !- Value Until Time 8

OS:Schedule:Day,
  {5b1b23f9-c7e0-4b78-9a64-d2d75741848f}, !- Handle
  0800|1700|Office|default|occ Winter Design Day, !- Name
  {f137ae54-9e82-4eba-b2b4-02199de5283c}, !- Schedule Type Limits Name
  ,                                       !- Interpolate to Timestep
  24,                                     !- Hour 1
  0,                                      !- Minute 1
  0;                                      !- Value Until Time 1

OS:Schedule:Rule,
  {29ea405a-a0cf-466d-b009-fa939fafffc5}, !- Handle
  0800|1700|Office|default|occ |1/1-12/31|Sun Rule, !- Name
  {38c06f68-3f2f-4d27-b80b-974b42a8513c}, !- Schedule Ruleset Name
  0,                                      !- Rule Order
  {1ac29e5f-2a59-436f-8954-4448ddffabb6}, !- Day Schedule Name
  Yes,                                    !- Apply Sunday
  ,                                       !- Apply Monday
  ,                                       !- Apply Tuesday
  ,                                       !- Apply Wednesday
  ,                                       !- Apply Thursday
  ,                                       !- Apply Friday
  ,                                       !- Apply Saturday
  ,                                       !- Apply Holiday
  DateRange,                              !- Date Specification Type
  1,                                      !- Start Month
  1,                                      !- Start Day
  12,                                     !- End Month
  31;                                     !- End Day

OS:Schedule:Day,
  {1ac29e5f-2a59-436f-8954-4448ddffabb6}, !- Handle
  0800|1700|Office|default|occ |1/1-12/31|Sun, !- Name
  {f137ae54-9e82-4eba-b2b4-02199de5283c}, !- Schedule Type Limits Name
  ,                                       !- Interpolate to Timestep
  24,                                     !- Hour 1
  0,                                      !- Minute 1
  0;                                      !- Value Until Time 1

OS:Schedule:Rule,
  {17de30f7-87a2-4d98-b19a-ed00683c54c4}, !- Handle
  0800|1700|Office|default|occ |1/1-12/31|Sat Rule, !- Name
  {38c06f68-3f2f-4d27-b80b-974b42a8513c}, !- Schedule Ruleset Name
  1,                                      !- Rule Order
  {3c7f17d7-2734-4ddc-8722-560418265fa2}, !- Day Schedule Name
  ,                                       !- Apply Sunday
  ,                                       !- Apply Monday
  ,                                       !- Apply Tuesday
  ,                                       !- Apply Wednesday
  ,                                       !- Apply Thursday
  ,                                       !- Apply Friday
  Yes,                                    !- Apply Saturday
  ,                                       !- Apply Holiday
  DateRange,                              !- Date Specification Type
  1,                                      !- Start Month
  1,                                      !- Start Day
  12,                                     !- End Month
  31;                                     !- End Day

OS:Schedule:Day,
  {3c7f17d7-2734-4ddc-8722-560418265fa2}, !- Handle
  0800|1700|Office|default|occ |1/1-12/31|Sat, !- Name
  {f137ae54-9e82-4eba-b2b4-02199de5283c}, !- Schedule Type Limits Name
  ,                                       !- Interpolate to Timestep
  5,                                      !- Hour 1
  0,                                      !- Minute 1
  0,                                      !- Value Until Time 1
  5,                                      !- Hour 2
  30,                                     !- Minute 2
  0.04,                                   !- Value Until Time 2
  6,                                      !- Hour 3
  0,                                      !- Minute 3
  0.08,                                   !- Value Until Time 3
  6,                                      !- Hour 4
  30,                                     !- Minute 4
  0.13,                                   !- Value Until Time 4
  7,                                      !- Hour 5
  0,                                      !- Minute 5
  0.17,                                   !- Value Until Time 5
  7,                                      !- Hour 6
  30,                                     !- Minute 6
  0.21,                                   !- Value Until Time 6
  14,                                     !- Hour 7
  0,                                      !- Minute 7
  0.25,                                   !- Value Until Time 7
  14,                                     !- Hour 8
  30,                                     !- Minute 8
  0.22,                                   !- Value Until Time 8
  15,                                     !- Hour 9
  0,                                      !- Minute 9
  0.19,                                   !- Value Until Time 9
  15,                                     !- Hour 10
  30,                                     !- Minute 10
  0.16,                                   !- Value Until Time 10
  16,                                     !- Hour 11
  0,                                      !- Minute 11
  0.13,                                   !- Value Until Time 11
  16,                                     !- Hour 12
  30,                                     !- Minute 12
  0.09,                                   !- Value Until Time 12
  17,                                     !- Hour 13
  0,                                      !- Minute 13
  0.06,                                   !- Value Until Time 13
  17,                                     !- Hour 14
  30,                                     !- Minute 14
  0.03,                                   !- Value Until Time 14
  24,                                     !- Hour 15
  0,                                      !- Minute 15
  0;                                      !- Value Until Time 15

OS:Schedule:Ruleset,
  {dcc6e2db-1177-4f9a-9b11-c2c8a72d32ee}, !- Handle
  0800|1700|Office|default|activity,      !- Name
  {c8a83b48-dfb6-4fa1-9f25-aa5f417b6c61}, !- Schedule Type Limits Name
  {40bc979f-9e2f-40a1-a800-29f7cb4436bf}, !- Default Day Schedule Name
  {c6238810-d122-4c07-937b-f619b9c14142}, !- Summer Design Day Schedule Name
  {ca663c44-8981-47bf-9b61-65a874f81834}; !- Winter Design Day Schedule Name

OS:ScheduleTypeLimits,
  {c8a83b48-dfb6-4fa1-9f25-aa5f417b6c61}, !- Handle
  People Activity Type Limits,            !- Name
  0,                                      !- Lower Limit Value {BasedOnField A4}
  ,                                       !- Upper Limit Value {BasedOnField A4}
  Continuous,                             !- Numeric Type
  ActivityLevel;                          !- Unit Type

OS:Schedule:Day,
  {40bc979f-9e2f-40a1-a800-29f7cb4436bf}, !- Handle
  0800|1700|Office|default|activity |default, !- Name
  {c8a83b48-dfb6-4fa1-9f25-aa5f417b6c61}, !- Schedule Type Limits Name
  ,                                       !- Interpolate to Timestep
  24,                                     !- Hour 1
  0,                                      !- Minute 1
  120;                                    !- Value Until Time 1

OS:Schedule:Day,
  {c6238810-d122-4c07-937b-f619b9c14142}, !- Handle
  0800|1700|Office|default|activity Summer Design Day, !- Name
  {c8a83b48-dfb6-4fa1-9f25-aa5f417b6c61}, !- Schedule Type Limits Name
  ,                                       !- Interpolate to Timestep
  24,                                     !- Hour 1
  0,                                      !- Minute 1
  120;                                    !- Value Until Time 1

OS:Schedule:Day,
  {ca663c44-8981-47bf-9b61-65a874f81834}, !- Handle
  0800|1700|Office|default|activity Winter Design Day, !- Name
  {c8a83b48-dfb6-4fa1-9f25-aa5f417b6c61}, !- Schedule Type Limits Name
  ,                                       !- Interpolate to Timestep
  24,                                     !- Hour 1
  0,                                      !- Minute 1
  120;                                    !- Value Until Time 1

OS:Schedule:Ruleset,
  {86304d3a-daed-435a-a1d4-cf560e73041d}, !- Handle
  0800|1700|Office|default|elec_equip,    !- Name
  {4fed579d-fde2-4634-8a03-1e2588aaad03}, !- Schedule Type Limits Name
  {274dbfbc-2417-4012-afbd-3c9225da8f6a}, !- Default Day Schedule Name
  {ffd9161d-b882-467a-ac96-1ef4d465a913}, !- Summer Design Day Schedule Name
  {2e0c10b3-e3dc-4984-8d77-ce84bbabf5a2}; !- Winter Design Day Schedule Name

OS:ScheduleTypeLimits,
  {4fed579d-fde2-4634-8a03-1e2588aaad03}, !- Handle
  Equipment Schedule Type Limits,         !- Name
  0,                                      !- Lower Limit Value {BasedOnField A4}
  1,                                      !- Upper Limit Value {BasedOnField A4}
  Continuous,                             !- Numeric Type
  Dimensionless;                          !- Unit Type

OS:Schedule:Day,
  {274dbfbc-2417-4012-afbd-3c9225da8f6a}, !- Handle
  0800|1700|Office|default|elec_equip |default, !- Name
  {4fed579d-fde2-4634-8a03-1e2588aaad03}, !- Schedule Type Limits Name
  ,                                       !- Interpolate to Timestep
  8,                                      !- Hour 1
  0,                                      !- Minute 1
  0.4,                                    !- Value Until Time 1
  12,                                     !- Hour 2
  0,                                      !- Minute 2
  0.9,                                    !- Value Until Time 2
  13,                                     !- Hour 3
  0,                                      !- Minute 3
  0.8,                                    !- Value Until Time 3
  16,                                     !- Hour 4
  0,                                      !- Minute 4
  0.9,                                    !- Value Until Time 4
  16,                                     !- Hour 5
  30,                                     !- Minute 5
  0.8,                                    !- Value Until Time 5
  17,                                     !- Hour 6
  0,                                      !- Minute 6
  0.7,                                    !- Value Until Time 6
  17,                                     !- Hour 7
  30,                                     !- Minute 7
  0.6,                                    !- Value Until Time 7
  18,                                     !- Hour 8
  0,                                      !- Minute 8
  0.5,                                    !- Value Until Time 8
  18,                                     !- Hour 9
  30,                                     !- Minute 9
  0.49,                                   !- Value Until Time 9
  19,                                     !- Hour 10