
OS:Version,
  {40ed56cf-17e3-49ba-9ffc-16422562f1f3}, !- Handle
  1.6.0;                                  !- Version Identifier

OS:ClimateZones,
  {135edfab-17e7-40db-a436-27d385a8cd6d}, !- Handle
  ,                                       !- Active Institution
  ,                                       !- Active Year
  ASHRAE,                                 !- Climate Zone Institution Name 1
  ANSI/ASHRAE Standard 169,               !- Climate Zone Document Name 1
  2006,                                   !- Climate Zone Document Year 1
  ,                                       !- Climate Zone Value 1
  CEC,                                    !- Climate Zone Institution Name 2
  California Climate Zone Descriptions,   !- Climate Zone Document Name 2
  1995,                                   !- Climate Zone Document Year 2
  ;                                       !- Climate Zone Value 2

OS:YearDescription,
  {513d8dda-86cb-442a-b01c-1f7f0e0ac70e}; !- Handle

OS:RadianceParameters,
  {270a96f1-3c86-4b75-a667-cdf22790e2c8}, !- Handle
  1,                                      !- Accumulated Rays per Record
  0,                                      !- Direct Threshold
  1,                                      !- Direct Certainty
  1,                                      !- Direct Jitter
  1,                                      !- Direct Pretest
  6,                                      !- Ambient Bounces VMX
  2,                                      !- Ambient Bounces DMX
  4050,                                   !- Ambient Divisions VMX
  512,                                    !- Ambient Divisions DMX
  256,                                    !- Ambient Supersamples
  0.001,                                  !- Limit Weight VMX
  0.001,                                  !- Limit Weight DMX
  500,                                    !- Klems Sampling Density
  146;                                    !- Sky Discretization Resolution

OS:SimulationControl,
  {2c487a4c-bac9-4ac5-b669-1e49d9da7c2b}, !- Handle
  ,                                       !- Do Zone Sizing Calculation
  ,                                       !- Do System Sizing Calculation
  ,                                       !- Do Plant Sizing Calculation
  No,                                     !- Run Simulation for Sizing Periods
  ,                                       !- Run Simulation for Weather File Run Periods
  0.04,                                   !- Loads Convergence Tolerance Value
  ,                                       !- Temperature Convergence Tolerance Value {deltaC}
  ,                                       !- Solar Distribution
  ,                                       !- Maximum Number of Warmup Days
  2;                                      !- Minimum Number of Warmup Days

OS:Sizing:Parameters,
  {dde5af6f-7923-4600-a28a-7556673a0266}, !- Handle
  1.25,                                   !- Heating Sizing Factor
  1.15;                                   !- Cooling Sizing Factor

OS:ProgramControl,
  {05027a99-f2b3-4aeb-afc6-1425fbb4371d}; !- Handle

OS:Timestep,
  {4ebc9f1e-4707-402e-9844-67eb1ffbd522}, !- Handle
  2;                                      !- Number of Timesteps per Hour

OS:OutputControl:ReportingTolerances,
  {65797aa2-06a9-45fe-b69d-bc6e060399d3}; !- Handle

OS:ConvergenceLimits,
  {9fc11aba-8822-4f3d-970c-46391ba4040d}; !- Handle

OS:ShadowCalculation,
  {ca758bea-4416-4626-9bba-3d8795c79bd6}, !- Handle
  7,                                      !- Calculation Frequency
  15000;                                  !- Maximum Figures in Shadow Overlap Calculations

OS:SurfaceConvectionAlgorithm:Inside,
  {aaabfc36-718a-4ab0-b622-f186ebb45230}, !- Handle
  TARP;                                   !- Algorithm

OS:SurfaceConvectionAlgorithm:Outside,
  {9a0a9f6f-4bbd-4b12-a121-9492a1fcd7d6}, !- Handle
  DOE-2;                                  !- Algorithm

OS:HeatBalanceAlgorithm,
  {9d93e563-e1e0-46d7-9e39-d1c8aceb7212}, !- Handle
  ConductionTransferFunction,             !- Algorithm
  200;                                    !- Surface Temperature Upper Limit {F}

OS:ZoneAirHeatBalanceAlgorithm,
  {8520d93e-310f-4696-9bcd-36228bfdd743}, !- Handle
  AnalyticalSolution;                     !- Algorithm

OS:ZoneAirContaminantBalance,
  {eb5fc3ae-fb22-4160-8fcb-3e3b22b000d3}; !- Handle

OS:ZoneCapacitanceMultiplier:ResearchSpecial,
  {4020ce4f-5a7a-4849-8028-8305d7b751b1}, !- Handle
  ,                                       !- Temperature Capacity Multiplier
  ,                                       !- Humidity Capacity Multiplier
  ;                                       !- Carbon Dioxide Capacity Multiplier

OS:RunPeriod,
  {28df894d-6af9-4fb8-8f56-df1753344aa3}, !- Handle
  Run Period 1,                           !- Name
  1,                                      !- Begin Month
  1,                                      !- Begin Day of Month
  12,                                     !- End Month
  31,                                     !- End Day of Month
  ,                                       !- Use Weather File Holidays and Special Days
  ,                                       !- Use Weather File Daylight Saving Period
  ,                                       !- Apply Weekend Holiday Rule
  ,                                       !- Use Weather File Rain Indicators
  ,                                       !- Use Weather File Snow Indicators
  ;                                       !- Number of Times Runperiod to be Repeated

OS:Building,
  {bf305633-c5a1-4881-9edf-ca5e1a8e1274}, !- Handle
  Building 1,                             !- Name
  ,                                       !- Building Sector Type
  ,                                       !- North Axis {deg}
  ,                                       !- Nominal Floor to Floor Height {m}
  ,                                       !- Space Type Name
  ,                                       !- Default Construction Set Name
  {371bfa39-3718-407b-86ef-72efb1fad970}, !- Default Schedule Set Name
  ,                                       !- Standards Number of Stories
  ,                                       !- Standards Number of Above Ground Stories
  Office;                                 !- Standards Building Type

OS:LifeCycleCost:Parameters,
  {231cf8a0-f0e7-4251-a99f-11f0d464e661}, !- Handle
  FEMP,                                   !- Analysis Type
  ,                                       !- Discounting Convention
  ,                                       !- Inflation Approach
  ,                                       !- Real Discount Rate
  ,                                       !- Nominal Discount Rate
  ,                                       !- Inflation
  ,                                       !- Base Date Month
  ,                                       !- Base Date Year
  ,                                       !- Service Date Month
  ,                                       !- Service Date Year
  ,                                       !- Length of Study Period in Years
  ,                                       !- Tax Rate
  ,                                       !- Depreciation Method
  Yes;                                    !- Use NIST Fuel Escalation Rates

OS:Facility,
  {3ba8e45b-b833-44eb-a723-ea6c3946dc96}; !- Handle

OS:SpaceType,
  {8fb2419d-143e-414b-8ec3-3cce13a3e3b2}, !- Handle
  Office|BlendA|DOE Ref Pre-1980|ASHRAE 169-2006-5A, !- Name
  {48a3f6bf-c48d-4692-8215-5d657cc3ad92}, !- Default Construction Set Name
  ,                                       !- Default Schedule Set Name
  {f23be29d-cf61-4a93-ae32-51758876eab8}, !- Group Rendering Name
  {a03374b7-eb77-4bc9-a065-372d3b7363a7}, !- Design Specification Outdoor Air Object Name
  Office,                                 !- Standards Building Type
  BlendA;                                 !- Standards Space Type

OS:Rendering:Color,
  {f23be29d-cf61-4a93-ae32-51758876eab8}, !- Handle
  Rendering Color 1,                      !- Name
  120,                                    !- Rendering Red Value
  230,                                    !- Rendering Green Value
  199;                                    !- Rendering Blue Value

OS:SpaceType,
  {5e13ae93-7e7a-4c39-999b-fb0c8ee2f891}, !- Handle
  Office|BlendB|DOE Ref Pre-1980|ASHRAE 169-2006-5A, !- Name
  {48a3f6bf-c48d-4692-8215-5d657cc3ad92}, !- Default Construction Set Name
  ,                                       !- Default Schedule Set Name
  {bb48a81e-9b55-4084-96a6-d50b57955931}, !- Group Rendering Name
  {50595a55-8ad5-4d1f-85ff-0995dd30f33f}, !- Design Specification Outdoor Air Object Name
  Office,                                 !- Standards Building Type
  BlendB;                                 !- Standards Space Type

OS:Rendering:Color,
  {bb48a81e-9b55-4084-96a6-d50b57955931}, !- Handle
  Rendering Color 2,                      !- Name
  120,                                    !- Rendering Red Value
  149,                                    !- Rendering Green Value
  230;                                    !- Rendering Blue Value

OS:SpaceType,
  {59d435b9-4940-4a87-99e0-9a846d51f12d}, !- Handle
  Office|BlendC|DOE Ref Pre-1980|ASHRAE 169-2006-5A, !- Name
  {48a3f6bf-c48d-4692-8215-5d657cc3ad92}, !- Default Construction Set Name
  ,                                       !- Default Schedule Set Name
  {11a2932e-b638-4bbb-82d1-f2724cda96fb}, !- Group Rendering Name
  {f0ebca16-8ed0-41bc-a0e2-7bd6e17b83ee}, !- Design Specification Outdoor Air Object Name
  Office,                                 !- Standards Building Type
  BlendC;                                 !- Standards Space Type

OS:Rendering:Color,
  {11a2932e-b638-4bbb-82d1-f2724cda96fb}, !- Handle
  Rendering Color 3,                      !- Name
  41,                                     !- Rendering Red Value
  31,                                     !- Rendering Green Value
  169;                                    !- Rendering Blue Value

OS:SpaceType,
  {303dce92-3fb3-4fad-becb-146328f048dc}, !- Handle
  Office|Restroom|DOE Ref Pre-1980|ASHRAE 169-2006-5A, !- Name
  {48a3f6bf-c48d-4692-8215-5d657cc3ad92}, !- Default Construction Set Name
  {56d2b753-929e-4892-a631-2bf2b6652d5c}, !- Default Schedule Set Name
  {16c5b3dd-9146-4b5c-9fe5-7cbb060455e0}, !- Group Rendering Name
  {cebf5057-1a7a-4818-b9cf-0691f755a661}, !- Design Specification Outdoor Air Object Name
  Office,                                 !- Standards Building Type
  Restroom;                               !- Standards Space Type

OS:Rendering:Color,
  {16c5b3dd-9146-4b5c-9fe5-7cbb060455e0}, !- Handle
  Rendering Color 4,                      !- Name
  169,                                    !- Rendering Red Value
  169,                                    !- Rendering Green Value
  31;                                     !- Rendering Blue Value

OS:Schedule:Ruleset,
  {e460429a-5874-4a3e-8149-b2cb109536a9}, !- Handle
  0800|1700|Office|default|hoo,           !- Name
  {49641eff-2629-4c14-92f8-d0ce88bf0604}, !- Schedule Type Limits Name
  {380afc40-157d-440f-b403-9d8a516ceab8}, !- Default Day Schedule Name
  {ef406d9b-1148-4ca6-8360-ffd2d57bbb04}, !- Summer Design Day Schedule Name
  {d4b974e0-9720-4b48-8aa8-eb67a09d5789}; !- Winter Design Day Schedule Name

OS:Schedule:Day,
  {380afc40-157d-440f-b403-9d8a516ceab8}, !- Handle
  0800|1700|Office|default|hoo Schedule Week Day, !- Name
  {49641eff-2629-4c14-92f8-d0ce88bf0604}, !- Schedule Type Limits Name
  ,                                       !- Interpolate to Timestep
  8,                                      !- Hour 1
  0,                                      !- Minute 1
  0,                                      !- Value Until Time 1
  17,                                     !- Hour 2
  0,                                      !- Minute 2
  1,                                      !- Value Until Time 2
  24,                                     !- Hour 3
  0,                                      !- Minute 3
  0;                                      !- Value Until Time 3

OS:Schedule:Day,
  {e062e1e8-ef65-444d-bd6d-7272faf2e66f}, !- Handle
  Schedule Day 2,                         !- Name
  ,                                       !- Schedule Type Limits Name
  ,                                       !- Interpolate to Timestep
  24,                                     !- Hour 1
  0,                                      !- Minute 1
  0;                                      !- Value Until Time 1

OS:Schedule:Day,
  {d4b974e0-9720-4b48-8aa8-eb67a09d5789}, !- Handle
  0800|1700|Office|default|hoo Winter Design Day, !- Name
  {49641eff-2629-4c14-92f8-d0ce88bf0604}, !- Schedule Type Limits Name
  ,                                       !- Interpolate to Timestep
  24,                                     !- Hour 1
  0,                                      !- Minute 1
  0;                                      !- Value Until Time 1

OS:Schedule:Day,
  {1573d291-00f7-4df8-9de2-25d2bf9173ff}, !- Handle
  Schedule Day 3,                         !- Name
  ,                                       !- Schedule Type Limits Name
  ,                                       !- Interpolate to Timestep
  24,                                     !- Hour 1
  0,                                      !- Minute 1
  0;                                      !- Value Until Time 1

OS:Schedule:Day,
  {ef406d9b-1148-4ca6-8360-ffd2d57bbb04}, !- Handle
  0800|1700|Office|default|hoo Summer Design Day, !- Name
  {49641eff-2629-4c14-92f8-d0ce88bf0604}, !- Schedule Type Limits Name
  ,                                       !- Interpolate to Timestep
  24,                                     !- Hour 1
  0,                                      !- Minute 1
  1;                                      !- Value Until Time 1

OS:DefaultScheduleSet,
  {371bfa39-3718-407b-86ef-72efb1fad970}, !- Handle
  Building Hours of Operation,            !- Name
  {e460429a-5874-4a3e-8149-b2cb109536a9}, !- Hours of Operation Schedule Name
  ,                                       !- Number of People Schedule Name
  ,                                       !- People Activity Level Schedule Name
  ,                                       !- Lighting Schedule Name
  ,                                       !- Electric Equipment Schedule Name
  ,                                       !- Gas Equipment Schedule Name
  ,                                       !- Hot Water Equipment Schedule Name
  ,                                       !- Infiltration Schedule Name
  ,                                       !- Steam Equipment Schedule Name
  ;                                       !- Other Equipment Schedule Name

OS:ScheduleTypeLimits,
  {49641eff-2629-4c14-92f8-d0ce88bf0604}, !- Handle
  OnOff,                                  !- Name
  0,                                      !- Lower Limit Value {BasedOnField A4}
  1,                                      !- Upper Limit Value {BasedOnField A4}
  Discrete,                               !- Numeric Type
  Availability;                           !- Unit Type

OS:Schedule:Ruleset,
  {48d634c1-0426-468c-9560-841b079286ce}, !- Handle
  0800|1700|Office|default|air_velocity,  !- Name
  {b461b1d4-985e-415b-93d5-1ef2a504daa9}, !- Schedule Type Limits Name
  {9562ef3c-fee6-452b-a426-3c62d904c89c}, !- Default Day Schedule Name
  {fd4f9611-a3d6-46e5-b9c9-306d9edea632}, !- Summer Design Day Schedule Name
  {e04cbd52-f227-43d8-9aba-a08a102b4218}; !- Winter Design Day Schedule Name

OS:ScheduleTypeLimits,
  {b461b1d4-985e-415b-93d5-1ef2a504daa9}, !- Handle
  Dimensionless Schedule Type Limits,     !- Name
  ,                                       !- Lower Limit Value {BasedOnField A4}
  ,                                       !- Upper Limit Value {BasedOnField A4}
  Continuous,                             !- Numeric Type
  Dimensionless;                          !- Unit Type

OS:Schedule:Day,
  {9562ef3c-fee6-452b-a426-3c62d904c89c}, !- Handle
  0800|1700|Office|default|air_velocity |default, !- Name
  {b461b1d4-985e-415b-93d5-1ef2a504daa9}, !- Schedule Type Limits Name
  ,                                       !- Interpolate to Timestep
  24,                                     !- Hour 1
  0,                                      !- Minute 1
  0.200152;                               !- Value Until Time 1

OS:Schedule:Day,
  {fd4f9611-a3d6-46e5-b9c9-306d9edea632}, !- Handle
  0800|1700|Office|default|air_velocity Summer Design Day, !- Name
  {b461b1d4-985e-415b-93d5-1ef2a504daa9}, !- Schedule Type Limits Name
  ,                                       !- Interpolate to Timestep
  24,                                     !- Hour 1
  0,                                      !- Minute 1
  0.200152;                               !- Value Until Time 1

OS:Schedule:Day,
  {e04cbd52-f227-43d8-9aba-a08a102b4218}, !- Handle
  0800|1700|Office|default|air_velocity Winter Design Day, !- Name
  {b461b1d4-985e-415b-93d5-1ef2a504daa9}, !- Schedule Type Limits Name
  ,                                       !- Interpolate to Timestep
  24,                                     !- Hour 1
  0,                                      !- Minute 1
  0.200152;                               !- Value Until Time 1

OS:Schedule:Ruleset,
  {1f3b7d86-d404-4cb5-8fc6-39bb3ee25dfe}, !- Handle
  0800|1700|Office|default|swh_target_temp, !- Name
  {e8a7e78a-5532-4a77-aa2f-9d1383492878}, !- Schedule Type Limits Name
  {6db866c4-dd08-4d79-b8ac-382302c33f4b}, !- Default Day Schedule Name
  {01a3aedb-fdf3-4023-8b83-ccd0c2f309c6}, !- Summer Design Day Schedule Name
  {c0486533-7c72-4696-b16b-ae11c3745026}; !- Winter Design Day Schedule Name

OS:ScheduleTypeLimits,
  {e8a7e78a-5532-4a77-aa2f-9d1383492878}, !- Handle
  Temperature Schedule Type Limits,       !- Name
  ,                                       !- Lower Limit Value {BasedOnField A4}
  ,                                       !- Upper Limit Value {BasedOnField A4}
  Continuous,                             !- Numeric Type
  Temperature;                            !- Unit Type

OS:Schedule:Day,
  {6db866c4-dd08-4d79-b8ac-382302c33f4b}, !- Handle
  0800|1700|Office|default|swh_target_temp |default, !- Name
  {e8a7e78a-5532-4a77-aa2f-9d1383492878}, !- Schedule Type Limits Name
  ,                                       !- Interpolate to Timestep
  24,                                     !- Hour 1
  0,                                      !- Minute 1
  71.1111111111111;                       !- Value Until Time 1

OS:Schedule:Day,
  {01a3aedb-fdf3-4023-8b83-ccd0c2f309c6}, !- Handle
  0800|1700|Office|default|swh_target_temp Summer Design Day, !- Name
  {e8a7e78a-5532-4a77-aa2f-9d1383492878}, !- Schedule Type Limits Name
  ,                                       !- Interpolate to Timestep
  24,                                     !- Hour 1
  0,                                      !- Minute 1
  71.1111111111111;                       !- Value Until Time 1

OS:Schedule:Day,
  {c0486533-7c72-4696-b16b-ae11c3745026}, !- Handle
  0800|1700|Office|default|swh_target_temp Winter Design Day, !- Name
  {e8a7e78a-5532-4a77-aa2f-9d1383492878}, !- Schedule Type Limits Name
  ,                                       !- Interpolate to Timestep
  24,                                     !- Hour 1
  0,                                      !- Minute 1
  71.1111111111111;                       !- Value Until Time 1

OS:Schedule:Ruleset,
  {6ee2479f-3cfe-44c5-b0f2-1cb16a406dfd}, !- Handle
  0800|1700|Office|ClosedOffice|occ,      !- Name
  {9763f4c6-99a3-4aad-a4d8-2353ecb7b7a2}, !- Schedule Type Limits Name
  {a6d7d586-6174-48f5-b75b-986ff0dff006}, !- Default Day Schedule Name
  {19d9bb59-cf45-448a-9161-6b8791504698}, !- Summer Design Day Schedule Name
  {19c5bb86-2a00-46e4-b985-7beedf41d40a}; !- Winter Design Day Schedule Name

OS:ScheduleTypeLimits,
  {9763f4c6-99a3-4aad-a4d8-2353ecb7b7a2}, !- Handle
  Occupancy Schedule Type Limits,         !- Name
  0,                                      !- Lower Limit Value {BasedOnField A4}
  1,                                      !- Upper Limit Value {BasedOnField A4}
  Continuous,                             !- Numeric Type
  Dimensionless;                          !- Unit Type

OS:Schedule:Day,
  {a6d7d586-6174-48f5-b75b-986ff0dff006}, !- Handle
  0800|1700|Office|ClosedOffice|occ |default, !- Name
  {9763f4c6-99a3-4aad-a4d8-2353ecb7b7a2}, !- Schedule Type Limits Name
  ,                                       !- Interpolate to Timestep
  5,                                      !- Hour 1
  0,                                      !- Minute 1
  0,                                      !- Value Until Time 1
  5,                                      !- Hour 2
  30,                                     !- Minute 2
  0.05,                                   !- Value Until Time 2
  6,                                      !- Hour 3
  0,                                      !- Minute 3
  0.1,                                    !- Value Until Time 3
  6,                                      !- Hour 4
  30,                                     !- Minute 4
  0.15,                                   !- Value Until Time 4
  7,                                      !- Hour 5
  0,                                      !- Minute 5
  0.2,                                    !- Value Until Time 5
  7,                                      !- Hour 6
  30,                                     !- Minute 6
  0.25,                                   !- Value Until Time 6
  8,                                      !- Hour 7
  0,                                      !- Minute 7
  0.3,                                    !- Value Until Time 7
  12,                                     !- Hour 8
  0,                                      !- Minute 8
  0.85,                                   !- Value Until Time 8
  13,                                     !- Hour 9
  0,                                      !- Minute 9
  0.51,                                   !- Value Until Time 9
  17,                                     !- Hour 10
  0,                                      !- Minute 10
  0.85,                                   !- Value Until Time 10
  17,                                     !- Hour 11
  30,                                     !- Minute 11
  0.76,                                   !- Value Until Time 11
  18,                                     !- Hour 12
  0,                                      !- Minute 12
  0.68,                                   !- Value Until Time 12
  18,                                     !- Hour 13
  30,                                     !- Minute 13
  0.6,                                    !- Value Until Time 13
  19,                                     !- Hour 14
  0,                                      !- Minute 14
  0.51,                                   !- Value Until Time 14
  19,                                     !- Hour 15
  30,                                     !- Minute 15
  0.43,                                   !- Value Until Time 15
  20,                                     !- Hour 16
  0,                                      !- Minute 16
  0.34,                                   !- Value Until Time 16
  20,                                     !- Hour 17
  30,                                     !- Minute 17
  0.26,                                   !- Value Until Time 17
  21,                                     !- Hour 18
  0,                                      !- Minute 18
  0.17,                                   !- Value Until Time 18
  21,                                     !- Hour 19
  30,                                     !- Minute 19
  0.09,                                   !- Value Until Time 19
  24,                                     !- Hour 20
  0,                                      !- Minute 20
  0;                                      !- Value Until Time 20

OS:Schedule:Day,
  {19d9bb59-cf45-448a-9161-6b8791504698}, !- Handle
  0800|1700|Office|ClosedOffice|occ Summer Design Day, !- Name
  {9763f4c6-99a3-4aad-a4d8-2353ecb7b7a2}, !- Schedule Type Limits Name
  ,                                       !- Interpolate to Timestep
  5,                                      !- Hour 1
  0,                                      !- Minute 1
  0,                                      !- Value Until Time 1
  5,                                      !- Hour 2
  30,                                     !- Minute 2
  0.05,                                   !- Value Until Time 2
  6,                                      !- Hour 3
  0,                                      !- Minute 3
  0.1,                                    !- Value Until Time 3
  6,                                      !- Hour 4
  30,                                     !- Minute 4
  0.15,                                   !- Value Until Time 4
  7,                                      !- Hour 5
  0,                                      !- Minute 5
  0.2,                                    !- Value Until Time 5
  7,                                      !- Hour 6
  30,                                     !- Minute 6
  0.25,                                   !- Value Until Time 6
  20,                                     !- Hour 7
  0,                                      !- Minute 7
  1,                                      !- Value Until Time 7
  20,                                     !- Hour 8
  30,                                     !- Minute 8
  0.26,                                   !- Value Until Time 8
  21,                                     !- Hour 9
  0,                                      !- Minute 9
  0.17,                                   !- Value Until Time 9
  21,                                     !- Hour 10
  30,                                     !- Minute 10
  0.09,                                   !- Value Until Time 10
  24,                                     !- Hour 11
  0,                                      !- Minute 11
  0;                                      !- Value Until Time 11

OS:Schedule:Day,
  {19c5bb86-2a00-46e4-b985-7beedf41d40a}, !- Handle
  0800|1700|Office|ClosedOffice|occ Winter Design Day, !- Name
  {9763f4c6-99a3-4aad-a4d8-2353ecb7b7a2}, !- Schedule Type Limits Name
  ,                                       !- Interpolate to Timestep
  24,                                     !- Hour 1
  0,                                      !- Minute 1
  0;                                      !- Value Until Time 1

OS:Schedule:Rule,
  {11e3bf15-37ad-4b7a-bbb6-01df94610ca8}, !- Handle
  0800|1700|Office|ClosedOffice|occ |1/1-12/31|Sun Rule, !- Name
  {6ee2479f-3cfe-44c5-b0f2-1cb16a406dfd}, !- Schedule Ruleset Name
  0,                                      !- Rule Order
  {047bb86f-9d06-4c45-bd01-365d08d2309a}, !- Day Schedule Name
  Yes,                                    !- Apply Sunday
  ,                                       !- Apply Monday
  ,                                       !- Apply Tuesday
  ,                                       !- Apply Wednesday
  ,                                       !- Apply Thursday
  ,                                       !- Apply Friday
  ,                                       !- Apply Saturday
  ,                                       !- Apply Holiday
  DateRange,                              !- Date Specification Type
  1,                                      !- Start Month
  1,                                      !- Start Day
  12,                                     !- End Month
  31;                                     !- End Day

OS:Schedule:Day,
  {047bb86f-9d06-4c45-bd01-365d08d2309a}, !- Handle
  0800|1700|Office|ClosedOffice|occ |1/1-12/31|Sun, !- Name
  {9763f4c6-99a3-4aad-a4d8-2353ecb7b7a2}, !- Schedule Type Limits Name
  ,                                       !- Interpolate to Timestep
  24,                                     !- Hour 1
  0,                                      !- Minute 1
  0;                                      !- Value Until Time 1

OS:Schedule:Rule,
  {122ba4f5-67cf-4e35-a036-e2ff4fe7bede}, !- Handle
  0800|1700|Office|ClosedOffice|occ |1/1-12/31|Sat Rule, !- Name
  {6ee2479f-3cfe-44c5-b0f2-1cb16a406dfd}, !- Schedule Ruleset Name
  1,                                      !- Rule Order
  {6896b83f-bb0e-4a27-be6b-4462d860ef41}, !- Day Schedule Name
  ,                                       !- Apply Sunday
  ,                                       !- Apply Monday
  ,                                       !- Apply Tuesday
  ,                                       !- Apply Wednesday
  ,                                       !- Apply Thursday
  ,                                       !- Apply Friday
  Yes,                                    !- Apply Saturday
  ,                                       !- Apply Holiday
  DateRange,                              !- Date Specification Type
  1,                                      !- Start Month
  1,                                      !- Start Day
  12,                                     !- End Month
  31;                                     !- End Day

OS:Schedule:Day,
  {6896b83f-bb0e-4a27-be6b-4462d860ef41}, !- Handle
  0800|1700|Office|ClosedOffice|occ |1/1-12/31|Sat, !- Name
  {9763f4c6-99a3-4aad-a4d8-2353ecb7b7a2}, !- Schedule Type Limits Name
  ,                                       !- Interpolate to Timestep
  5,                                      !- Hour 1
  0,                                      !- Minute 1
  0,                                      !- Value Until Time 1
  5,                                      !- Hour 2
  30,                                     !- Minute 2
  0.03,                                   !- Value Until Time 2
  6,                                      !- Hour 3
  0,                                      !- Minute 3
  0.07,                                   !- Value Until Time 3
  6,                                      !- Hour 4