
OS:Version,
  {7b7c032a-dcf0-41b7-9741-08ef52e35c30}, !- Handle
  1.6.0;                                  !- Version Identifier

OS:ClimateZones,
  {135edfab-17e7-40db-a436-27d385a8cd6d}, !- Handle
  ,                                       !- Active Institution
  ,                                       !- Active Year
  ASHRAE,                                 !- Climate Zone Institution Name 1
  ANSI/ASHRAE Standard 169,               !- Climate Zone Document Name 1
  2006,                                   !- Climate Zone Document Year 1
  ,                                       !- Climate Zone Value 1
  CEC,                                    !- Climate Zone Institution Name 2
  California Climate Zone Descriptions,   !- Climate Zone Document Name 2
  1995,                                   !- Climate Zone Document Year 2
  ;                                       !- Climate Zone Value 2

OS:YearDescription,
  {513d8dda-86cb-442a-b01c-1f7f0e0ac70e}; !- Handle

OS:RadianceParameters,
  {270a96f1-3c86-4b75-a667-cdf22790e2c8}, !- Handle
  1,                                      !- Accumulated Rays per Record
  0,                                      !- Direct Threshold
  1,                                      !- Direct Certainty
  1,                                      !- Direct Jitter
  1,                                      !- Direct Pretest
  6,                                      !- Ambient Bounces VMX
  2,                                      !- Ambient Bounces DMX
  4050,                                   !- Ambient Divisions VMX
  512,                                    !- Ambient Divisions DMX
  256,                                    !- Ambient Supersamples
  0.001,                                  !- Limit Weight VMX
  0.001,                                  !- Limit Weight DMX
  500,                                    !- Klems Sampling Density
  146;                                    !- Sky Discretization Resolution

OS:SimulationControl,
  {2c487a4c-bac9-4ac5-b669-1e49d9da7c2b}, !- Handle
  ,                                       !- Do Zone Sizing Calculation
  ,                                       !- Do System Sizing Calculation
  ,                                       !- Do Plant Sizing Calculation
  No,                                     !- Run Simulation for Sizing Periods
  ,                                       !- Run Simulation for Weather File Run Periods
  0.04,                                   !- Loads Convergence Tolerance Value
  ,                                       !- Temperature Convergence Tolerance Value {deltaC}
  ,                                       !- Solar Distribution
  ,                                       !- Maximum Number of Warmup Days
  2;                                      !- Minimum Number of Warmup Days

OS:Sizing:Parameters,
  {dde5af6f-7923-4600-a28a-7556673a0266}, !- Handle
  1.25,                                   !- Heating Sizing Factor
  1.15;                                   !- Cooling Sizing Factor

OS:ProgramControl,
  {05027a99-f2b3-4aeb-afc6-1425fbb4371d}; !- Handle

OS:Timestep,
  {4ebc9f1e-4707-402e-9844-67eb1ffbd522}, !- Handle
  2;                                      !- Number of Timesteps per Hour

OS:OutputControl:ReportingTolerances,
  {65797aa2-06a9-45fe-b69d-bc6e060399d3}; !- Handle

OS:ConvergenceLimits,
  {9fc11aba-8822-4f3d-970c-46391ba4040d}; !- Handle

OS:ShadowCalculation,
  {ca758bea-4416-4626-9bba-3d8795c79bd6}, !- Handle
  7,                                      !- Calculation Frequency
  15000;                                  !- Maximum Figures in Shadow Overlap Calculations

OS:SurfaceConvectionAlgorithm:Inside,
  {aaabfc36-718a-4ab0-b622-f186ebb45230}, !- Handle
  TARP;                                   !- Algorithm

OS:SurfaceConvectionAlgorithm:Outside,
  {9a0a9f6f-4bbd-4b12-a121-9492a1fcd7d6}, !- Handle
  DOE-2;                                  !- Algorithm

OS:HeatBalanceAlgorithm,
  {9d93e563-e1e0-46d7-9e39-d1c8aceb7212}, !- Handle
  ConductionTransferFunction,             !- Algorithm
  200;                                    !- Surface Temperature Upper Limit {F}

OS:ZoneAirHeatBalanceAlgorithm,
  {8520d93e-310f-4696-9bcd-36228bfdd743}, !- Handle
  AnalyticalSolution;                     !- Algorithm

OS:ZoneAirContaminantBalance,
  {eb5fc3ae-fb22-4160-8fcb-3e3b22b000d3}; !- Handle

OS:ZoneCapacitanceMultiplier:ResearchSpecial,
  {4020ce4f-5a7a-4849-8028-8305d7b751b1}, !- Handle
  ,                                       !- Temperature Capacity Multiplier
  ,                                       !- Humidity Capacity Multiplier
  ;                                       !- Carbon Dioxide Capacity Multiplier

OS:RunPeriod,
  {28df894d-6af9-4fb8-8f56-df1753344aa3}, !- Handle
  Run Period 1,                           !- Name
  1,                                      !- Begin Month
  1,                                      !- Begin Day of Month
  12,                                     !- End Month
  31,                                     !- End Day of Month
  ,                                       !- Use Weather File Holidays and Special Days
  ,                                       !- Use Weather File Daylight Saving Period
  ,                                       !- Apply Weekend Holiday Rule
  ,                                       !- Use Weather File Rain Indicators
  ,                                       !- Use Weather File Snow Indicators
  ;                                       !- Number of Times Runperiod to be Repeated

OS:Building,
  {bf305633-c5a1-4881-9edf-ca5e1a8e1274}, !- Handle
  Building 1,                             !- Name
  ,                                       !- Building Sector Type
  ,                                       !- North Axis {deg}
  ,                                       !- Nominal Floor to Floor Height {m}
  ,                                       !- Space Type Name
  ,                                       !- Default Construction Set Name
  {dbc282c2-0cc1-4f1d-998e-8cc74dbeef57}, !- Default Schedule Set Name
  ,                                       !- Standards Number of Stories
  ,                                       !- Standards Number of Above Ground Stories
  Office;                                 !- Standards Building Type

OS:LifeCycleCost:Parameters,
  {231cf8a0-f0e7-4251-a99f-11f0d464e661}, !- Handle
  FEMP,                                   !- Analysis Type
  ,                                       !- Discounting Convention
  ,                                       !- Inflation Approach
  ,                                       !- Real Discount Rate
  ,                                       !- Nominal Discount Rate
  ,                                       !- Inflation
  ,                                       !- Base Date Month
  ,                                       !- Base Date Year
  ,                                       !- Service Date Month
  ,                                       !- Service Date Year
  ,                                       !- Length of Study Period in Years
  ,                                       !- Tax Rate
  ,                                       !- Depreciation Method
  Yes;                                    !- Use NIST Fuel Escalation Rates

OS:Facility,
  {3ba8e45b-b833-44eb-a723-ea6c3946dc96}; !- Handle

OS:SpaceType,
  {65d03fe5-47d9-441e-bec9-f52f41da4d5c}, !- Handle
  Office|BlendA|DOE Ref 1980-2004|ASHRAE 169-2006-5A, !- Name
  {a26dd8ef-8a66-40d7-9eba-cb64441bc11b}, !- Default Construction Set Name
  ,                                       !- Default Schedule Set Name
  {72654aea-bdda-4648-bb4c-87aef516bb86}, !- Group Rendering Name
  {7489a6a7-2860-4751-b28f-c3aed5a0227a}, !- Design Specification Outdoor Air Object Name
  Office,                                 !- Standards Building Type
  BlendA;                                 !- Standards Space Type

OS:Rendering:Color,
  {72654aea-bdda-4648-bb4c-87aef516bb86}, !- Handle
  Rendering Color 1,                      !- Name
  120,                                    !- Rendering Red Value
  230,                                    !- Rendering Green Value
  199;                                    !- Rendering Blue Value

OS:SpaceType,
  {bd2398de-45d0-429c-aaa3-0d94c9c382b9}, !- Handle
  Office|BlendB|DOE Ref 1980-2004|ASHRAE 169-2006-5A, !- Name
  {a26dd8ef-8a66-40d7-9eba-cb64441bc11b}, !- Default Construction Set Name
  ,                                       !- Default Schedule Set Name
  {bb6129be-4314-4232-a4a8-197ecf596d66}, !- Group Rendering Name
  {90240db8-d1a7-42bd-819c-23ca517516ab}, !- Design Specification Outdoor Air Object Name
  Office,                                 !- Standards Building Type
  BlendB;                                 !- Standards Space Type

OS:Rendering:Color,
  {bb6129be-4314-4232-a4a8-197ecf596d66}, !- Handle
  Rendering Color 2,                      !- Name
  120,                                    !- Rendering Red Value
  149,                                    !- Rendering Green Value
  230;                                    !- Rendering Blue Value

OS:SpaceType,
  {79e444f4-b03d-41d1-ad7a-abe706c429f6}, !- Handle
  Office|BlendC|DOE Ref 1980-2004|ASHRAE 169-2006-5A, !- Name
  {a26dd8ef-8a66-40d7-9eba-cb64441bc11b}, !- Default Construction Set Name
  ,                                       !- Default Schedule Set Name
  {1d565429-8093-4e80-b621-7789c7301d97}, !- Group Rendering Name
  {81f7229e-0bf7-4f01-b434-d753a23b840c}, !- Design Specification Outdoor Air Object Name
  Office,                                 !- Standards Building Type
  BlendC;                                 !- Standards Space Type

OS:Rendering:Color,
  {1d565429-8093-4e80-b621-7789c7301d97}, !- Handle
  Rendering Color 3,                      !- Name
  41,                                     !- Rendering Red Value
  31,                                     !- Rendering Green Value
  169;                                    !- Rendering Blue Value

OS:SpaceType,
  {dbac7bb7-f97e-4862-8513-e94a9d726235}, !- Handle
  Office|Restroom|DOE Ref 1980-2004|ASHRAE 169-2006-5A, !- Name
  {a26dd8ef-8a66-40d7-9eba-cb64441bc11b}, !- Default Construction Set Name
  {d5cd055e-7e0a-4546-b587-d4eeb94a991f}, !- Default Schedule Set Name
  {ff1c4ede-26e2-40fe-bc23-d85451a132d0}, !- Group Rendering Name
  {cc062a24-65df-40d3-984c-46437e5fc873}, !- Design Specification Outdoor Air Object Name
  Office,                                 !- Standards Building Type
  Restroom;                               !- Standards Space Type

OS:Rendering:Color,
  {ff1c4ede-26e2-40fe-bc23-d85451a132d0}, !- Handle
  Rendering Color 4,                      !- Name
  169,                                    !- Rendering Red Value
  169,                                    !- Rendering Green Value
  31;                                     !- Rendering Blue Value

OS:Schedule:Ruleset,
  {6c728931-48fa-46ed-b33c-19cfb43cc746}, !- Handle
  0800|1700|Office|default|hoo,           !- Name
  {de0ecd00-2eb2-492d-9682-ba3fa6e0ed9e}, !- Schedule Type Limits Name
  {d0f6b1a4-54e1-42a6-9f73-7a7685216f99}, !- Default Day Schedule Name
  {d7b3c661-54d2-4c5a-8673-f466d6f20580}, !- Summer Design Day Schedule Name
  {40dbc808-2cd7-485b-b634-7812ee0493ac}; !- Winter Design Day Schedule Name

OS:Schedule:Day,
  {d0f6b1a4-54e1-42a6-9f73-7a7685216f99}, !- Handle
  0800|1700|Office|default|hoo Schedule Week Day, !- Name
  {de0ecd00-2eb2-492d-9682-ba3fa6e0ed9e}, !- Schedule Type Limits Name
  ,                                       !- Interpolate to Timestep
  8,                                      !- Hour 1
  0,                                      !- Minute 1
  0,                                      !- Value Until Time 1
  17,                                     !- Hour 2
  0,                                      !- Minute 2
  1,                                      !- Value Until Time 2
  24,                                     !- Hour 3
  0,                                      !- Minute 3
  0;                                      !- Value Until Time 3

OS:Schedule:Day,
  {227baa15-6d87-4a4b-bd07-367822cfb5b5}, !- Handle
  Schedule Day 2,                         !- Name
  ,                                       !- Schedule Type Limits Name
  ,                                       !- Interpolate to Timestep
  24,                                     !- Hour 1
  0,                                      !- Minute 1
  0;                                      !- Value Until Time 1

OS:Schedule:Day,
  {40dbc808-2cd7-485b-b634-7812ee0493ac}, !- Handle
  0800|1700|Office|default|hoo Winter Design Day, !- Name
  {de0ecd00-2eb2-492d-9682-ba3fa6e0ed9e}, !- Schedule Type Limits Name
  ,                                       !- Interpolate to Timestep
  24,                                     !- Hour 1
  0,                                      !- Minute 1
  0;                                      !- Value Until Time 1

OS:Schedule:Day,
  {75f06010-26af-462e-a3fe-f393e58c010d}, !- Handle
  Schedule Day 3,                         !- Name
  ,                                       !- Schedule Type Limits Name
  ,                                       !- Interpolate to Timestep
  24,                                     !- Hour 1
  0,                                      !- Minute 1
  0;                                      !- Value Until Time 1

OS:Schedule:Day,
  {d7b3c661-54d2-4c5a-8673-f466d6f20580}, !- Handle
  0800|1700|Office|default|hoo Summer Design Day, !- Name
  {de0ecd00-2eb2-492d-9682-ba3fa6e0ed9e}, !- Schedule Type Limits Name
  ,                                       !- Interpolate to Timestep
  24,                                     !- Hour 1
  0,                                      !- Minute 1
  1;                                      !- Value Until Time 1

OS:DefaultScheduleSet,
  {dbc282c2-0cc1-4f1d-998e-8cc74dbeef57}, !- Handle
  Building Hours of Operation,            !- Name
  {6c728931-48fa-46ed-b33c-19cfb43cc746}, !- Hours of Operation Schedule Name
  ,                                       !- Number of People Schedule Name
  ,                                       !- People Activity Level Schedule Name
  ,                                       !- Lighting Schedule Name
  ,                                       !- Electric Equipment Schedule Name
  ,                                       !- Gas Equipment Schedule Name
  ,                                       !- Hot Water Equipment Schedule Name
  ,                                       !- Infiltration Schedule Name
  ,                                       !- Steam Equipment Schedule Name
  ;                                       !- Other Equipment Schedule Name

OS:ScheduleTypeLimits,
  {de0ecd00-2eb2-492d-9682-ba3fa6e0ed9e}, !- Handle
  OnOff,                                  !- Name
  0,                                      !- Lower Limit Value {BasedOnField A4}
  1,                                      !- Upper Limit Value {BasedOnField A4}
  Discrete,                               !- Numeric Type
  Availability;                           !- Unit Type

OS:Schedule:Ruleset,
  {805cc01e-ca22-4c4d-ac4e-041f32b7704e}, !- Handle
  0800|1700|Office|default|air_velocity,  !- Name
  {966595f1-e2f4-4bf0-9ab6-94523dc07dd3}, !- Schedule Type Limits Name
  {59091114-43ac-4254-b465-7006e3698f0a}, !- Default Day Schedule Name
  {c20f4d82-922a-479c-a675-ccaa87d4f20b}, !- Summer Design Day Schedule Name
  {0fc3d8ac-2e49-466e-81a8-95017ffcbfbf}; !- Winter Design Day Schedule Name

OS:ScheduleTypeLimits,
  {966595f1-e2f4-4bf0-9ab6-94523dc07dd3}, !- Handle
  Dimensionless Schedule Type Limits,     !- Name
  ,                                       !- Lower Limit Value {BasedOnField A4}
  ,                                       !- Upper Limit Value {BasedOnField A4}
  Continuous,                             !- Numeric Type
  Dimensionless;                          !- Unit Type

OS:Schedule:Day,
  {59091114-43ac-4254-b465-7006e3698f0a}, !- Handle
  0800|1700|Office|default|air_velocity |default, !- Name
  {966595f1-e2f4-4bf0-9ab6-94523dc07dd3}, !- Schedule Type Limits Name
  ,                                       !- Interpolate to Timestep
  24,                                     !- Hour 1
  0,                                      !- Minute 1
  0.200152;                               !- Value Until Time 1

OS:Schedule:Day,
  {c20f4d82-922a-479c-a675-ccaa87d4f20b}, !- Handle
  0800|1700|Office|default|air_velocity Summer Design Day, !- Name
  {966595f1-e2f4-4bf0-9ab6-94523dc07dd3}, !- Schedule Type Limits Name
  ,                                       !- Interpolate to Timestep
  24,                                     !- Hour 1
  0,                                      !- Minute 1
  0.200152;                               !- Value Until Time 1

OS:Schedule:Day,
  {0fc3d8ac-2e49-466e-81a8-95017ffcbfbf}, !- Handle
  0800|1700|Office|default|air_velocity Winter Design Day, !- Name
  {966595f1-e2f4-4bf0-9ab6-94523dc07dd3}, !- Schedule Type Limits Name
  ,                                       !- Interpolate to Timestep
  24,                                     !- Hour 1
  0,                                      !- Minute 1
  0.200152;                               !- Value Until Time 1

OS:Schedule:Ruleset,
  {913da449-d404-48af-a5ed-d2e8538d4c90}, !- Handle
  0800|1700|Office|default|swh_target_temp, !- Name
  {a74bc0d6-cd8d-428e-ab48-abfad88a8b95}, !- Schedule Type Limits Name
  {3e80895c-db3b-4eab-b645-093e05007454}, !- Default Day Schedule Name
  {d018f611-c435-4d80-9ff2-c883d089c310}, !- Summer Design Day Schedule Name
  {64e02a27-c7de-4882-bf25-3b4ebdf255ea}; !- Winter Design Day Schedule Name

OS:ScheduleTypeLimits,
  {a74bc0d6-cd8d-428e-ab48-abfad88a8b95}, !- Handle
  Temperature Schedule Type Limits,       !- Name
  ,                                       !- Lower Limit Value {BasedOnField A4}
  ,                                       !- Upper Limit Value {BasedOnField A4}
  Continuous,                             !- Numeric Type
  Temperature;                            !- Unit Type

OS:Schedule:Day,
  {3e80895c-db3b-4eab-b645-093e05007454}, !- Handle
  0800|1700|Office|default|swh_target_temp |default, !- Name
  {a74bc0d6-cd8d-428e-ab48-abfad88a8b95}, !- Schedule Type Limits Name
  ,                                       !- Interpolate to Timestep
  24,                                     !- Hour 1
  0,                                      !- Minute 1
  71.1111111111111;                       !- Value Until Time 1

OS:Schedule:Day,
  {d018f611-c435-4d80-9ff2-c883d089c310}, !- Handle
  0800|1700|Office|default|swh_target_temp Summer Design Day, !- Name
  {a74bc0d6-cd8d-428e-ab48-abfad88a8b95}, !- Schedule Type Limits Name
  ,                                       !- Interpolate to Timestep
  24,                                     !- Hour 1
  0,                                      !- Minute 1
  71.1111111111111;                       !- Value Until Time 1

OS:Schedule:Day,
  {64e02a27-c7de-4882-bf25-3b4ebdf255ea}, !- Handle
  0800|1700|Office|default|swh_target_temp Winter Design Day, !- Name
  {a74bc0d6-cd8d-428e-ab48-abfad88a8b95}, !- Schedule Type Limits Name
  ,                                       !- Interpolate to Timestep
  24,                                     !- Hour 1
  0,                                      !- Minute 1
  71.1111111111111;                       !- Value Until Time 1

OS:Schedule:Ruleset,
  {7cc3f07f-8174-4312-97f3-31268153ee41}, !- Handle
  0800|1700|Office|ClosedOffice|occ,      !- Name
  {06202b90-f6cd-43a5-a013-dad8c8f3fff5}, !- Schedule Type Limits Name
  {3db0671e-78c8-4b2b-a0f7-e355b6fcbe95}, !- Default Day Schedule Name
  {c2804010-ae19-4844-8909-d4a24d40b761}, !- Summer Design Day Schedule Name
  {f3adfdf4-8b45-440a-93cf-66c9ca320ea8}; !- Winter Design Day Schedule Name

OS:ScheduleTypeLimits,
  {06202b90-f6cd-43a5-a013-dad8c8f3fff5}, !- Handle
  Occupancy Schedule Type Limits,         !- Name
  0,                                      !- Lower Limit Value {BasedOnField A4}
  1,                                      !- Upper Limit Value {BasedOnField A4}
  Continuous,                             !- Numeric Type
  Dimensionless;                          !- Unit Type

OS:Schedule:Day,
  {3db0671e-78c8-4b2b-a0f7-e355b6fcbe95}, !- Handle
  0800|1700|Office|ClosedOffice|occ |default, !- Name
  {06202b90-f6cd-43a5-a013-dad8c8f3fff5}, !- Schedule Type Limits Name
  ,                                       !- Interpolate to Timestep
  5,                                      !- Hour 1
  0,                                      !- Minute 1
  0,                                      !- Value Until Time 1
  5,                                      !- Hour 2
  30,                                     !- Minute 2
  0.05,                                   !- Value Until Time 2
  6,                                      !- Hour 3
  0,                                      !- Minute 3
  0.1,                                    !- Value Until Time 3
  6,                                      !- Hour 4
  30,                                     !- Minute 4
  0.15,                                   !- Value Until Time 4
  7,                                      !- Hour 5
  0,                                      !- Minute 5
  0.2,                                    !- Value Until Time 5
  7,                                      !- Hour 6
  30,                                     !- Minute 6
  0.25,                                   !- Value Until Time 6
  8,                                      !- Hour 7
  0,                                      !- Minute 7
  0.3,                                    !- Value Until Time 7
  12,                                     !- Hour 8
  0,                                      !- Minute 8
  0.85,                                   !- Value Until Time 8
  13,                                     !- Hour 9
  0,                                      !- Minute 9
  0.51,                                   !- Value Until Time 9
  17,                                     !- Hour 10
  0,                                      !- Minute 10
  0.85,                                   !- Value Until Time 10
  17,                                     !- Hour 11
  30,                                     !- Minute 11
  0.76,                                   !- Value Until Time 11
  18,                                     !- Hour 12
  0,                                      !- Minute 12
  0.68,                                   !- Value Until Time 12
  18,                                     !- Hour 13
  30,                                     !- Minute 13
  0.6,                                    !- Value Until Time 13
  19,                                     !- Hour 14
  0,                                      !- Minute 14
  0.51,                                   !- Value Until Time 14
  19,                                     !- Hour 15
  30,                                     !- Minute 15
  0.43,                                   !- Value Until Time 15
  20,                                     !- Hour 16
  0,                                      !- Minute 16
  0.34,                                   !- Value Until Time 16
  20,                                     !- Hour 17
  30,                                     !- Minute 17
  0.26,                                   !- Value Until Time 17
  21,                                     !- Hour 18
  0,                                      !- Minute 18
  0.17,                                   !- Value Until Time 18
  21,                                     !- Hour 19
  30,                                     !- Minute 19
  0.09,                                   !- Value Until Time 19
  24,                                     !- Hour 20
  0,                                      !- Minute 20
  0;                                      !- Value Until Time 20

OS:Schedule:Day,
  {c2804010-ae19-4844-8909-d4a24d40b761}, !- Handle
  0800|1700|Office|ClosedOffice|occ Summer Design Day, !- Name
  {06202b90-f6cd-43a5-a013-dad8c8f3fff5}, !- Schedule Type Limits Name
  ,                                       !- Interpolate to Timestep
  5,                                      !- Hour 1
  0,                                      !- Minute 1
  0,                                      !- Value Until Time 1
  5,                                      !- Hour 2
  30,                                     !- Minute 2
  0.05,                                   !- Value Until Time 2
  6,                                      !- Hour 3
  0,                                      !- Minute 3
  0.1,                                    !- Value Until Time 3
  6,                                      !- Hour 4
  30,                                     !- Minute 4
  0.15,                                   !- Value Until Time 4
  7,                                      !- Hour 5
  0,                                      !- Minute 5
  0.2,                                    !- Value Until Time 5
  7,                                      !- Hour 6
  30,                                     !- Minute 6
  0.25,                                   !- Value Until Time 6
  20,                                     !- Hour 7
  0,                                      !- Minute 7
  1,                                      !- Value Until Time 7
  20,                                     !- Hour 8
  30,                                     !- Minute 8
  0.26,                                   !- Value Until Time 8
  21,                                     !- Hour 9
  0,                                      !- Minute 9
  0.17,                                   !- Value Until Time 9
  21,                                     !- Hour 10
  30,                                     !- Minute 10
  0.09,                                   !- Value Until Time 10
  24,                                     !- Hour 11
  0,                                      !- Minute 11
  0;                                      !- Value Until Time 11

OS:Schedule:Day,
  {f3adfdf4-8b45-440a-93cf-66c9ca320ea8}, !- Handle
  0800|1700|Office|ClosedOffice|occ Winter Design Day, !- Name
  {06202b90-f6cd-43a5-a013-dad8c8f3fff5}, !- Schedule Type Limits Name
  ,                                       !- Interpolate to Timestep
  24,                                     !- Hour 1
  0,                                      !- Minute 1
  0;                                      !- Value Until Time 1

OS:Schedule:Rule,
  {b424418c-443c-4d16-ac97-7bf4cbe1ecbc}, !- Handle
  0800|1700|Office|ClosedOffice|occ |1/1-12/31|Sun Rule, !- Name
  {7cc3f07f-8174-4312-97f3-31268153ee41}, !- Schedule Ruleset Name
  0,                                      !- Rule Order
  {b134bd94-c581-4ac2-bf97-2c1f3ecbae79}, !- Day Schedule Name
  Yes,                                    !- Apply Sunday
  ,                                       !- Apply Monday
  ,                                       !- Apply Tuesday
  ,                                       !- Apply Wednesday
  ,                                       !- Apply Thursday
  ,                                       !- Apply Friday
  ,                                       !- Apply Saturday
  ,                                       !- Apply Holiday
  DateRange,                              !- Date Specification Type
  1,                                      !- Start Month
  1,                                      !- Start Day
  12,                                     !- End Month
  31;                                     !- End Day

OS:Schedule:Day,
  {b134bd94-c581-4ac2-bf97-2c1f3ecbae79}, !- Handle
  0800|1700|Office|ClosedOffice|occ |1/1-12/31|Sun, !- Name
  {06202b90-f6cd-43a5-a013-dad8c8f3fff5}, !- Schedule Type Limits Name
  ,                                       !- Interpolate to Timestep
  24,                                     !- Hour 1
  0,                                      !- Minute 1
  0;                                      !- Value Until Time 1

OS:Schedule:Rule,
  {fa85918d-5f25-4c5f-baf9-be084a7d74f2}, !- Handle
  0800|1700|Office|ClosedOffice|occ |1/1-12/31|Sat Rule, !- Name
  {7cc3f07f-8174-4312-97f3-31268153ee41}, !- Schedule Ruleset Name
  1,                                      !- Rule Order
  {28a6a6bc-6f70-4033-b2d3-3000585871ee}, !- Day Schedule Name
  ,                                       !- Apply Sunday
  ,                                       !- Apply Monday
  ,                                       !- Apply Tuesday
  ,                                       !- Apply Wednesday
  ,                                       !- Apply Thursday
  ,                                       !- Apply Friday
  Yes,                                    !- Apply Saturday
  ,                                       !- Apply Holiday
  DateRange,                              !- Date Specification Type
  1,                                      !- Start Month
  1,                                      !- Start Day
  12,                                     !- End Month
  31;                                     !- End Day

OS:Schedule:Day,
  {28a6a6bc-6f70-4033-b2d3-3000585871ee}, !- Handle
  0800|1700|Office|ClosedOffice|occ |1/1-12/31|Sat, !- Name
  {06202b90-f6cd-43a5-a013-dad8c8f3fff5}, !- Schedule Type Limits Name
  ,                                       !- Interpolate to Timestep
  5,                                      !- Hour 1
  0,                                      !- Minute 1
  0,                                      !- Value Until Time 1
  5,                                      !- Hour 2
  30,                                     !- Minute 2
  0.03,                                   !- Value Until Time 2
  6,                                      !- Hour 3
  0,                                      !- Minute 3
  0.07,                                   !- Value Until Time 3
  6,                                      !- Hour 4