
OS:Version,
  {2ab2fc4a-9455-4bb4-ac2c-c1d92331d1b8}, !- Handle
  1.6.0;                                  !- Version Identifier

OS:ClimateZones,
  {135edfab-17e7-40db-a436-27d385a8cd6d}, !- Handle
  ,                                       !- Active Institution
  ,                                       !- Active Year
  ASHRAE,                                 !- Climate Zone Institution Name 1
  ANSI/ASHRAE Standard 169,               !- Climate Zone Document Name 1
  2006,                                   !- Climate Zone Document Year 1
  ,                                       !- Climate Zone Value 1
  CEC,                                    !- Climate Zone Institution Name 2
  California Climate Zone Descriptions,   !- Climate Zone Document Name 2
  1995,                                   !- Climate Zone Document Year 2
  ;                                       !- Climate Zone Value 2

OS:YearDescription,
  {513d8dda-86cb-442a-b01c-1f7f0e0ac70e}; !- Handle

OS:RadianceParameters,
  {270a96f1-3c86-4b75-a667-cdf22790e2c8}, !- Handle
  1,                                      !- Accumulated Rays per Record
  0,                                      !- Direct Threshold
  1,                                      !- Direct Certainty
  1,                                      !- Direct Jitter
  1,                                      !- Direct Pretest
  6,                                      !- Ambient Bounces VMX
  2,                                      !- Ambient Bounces DMX
  4050,                                   !- Ambient Divisions VMX
  512,                                    !- Ambient Divisions DMX
  256,                                    !- Ambient Supersamples
  0.001,                                  !- Limit Weight VMX
  0.001,                                  !- Limit Weight DMX
  500,                                    !- Klems Sampling Density
  146;                                    !- Sky Discretization Resolution

OS:SimulationControl,
  {2c487a4c-bac9-4ac5-b669-1e49d9da7c2b}, !- Handle
  ,                                       !- Do Zone Sizing Calculation
  ,                                       !- Do System Sizing Calculation
  ,                                       !- Do Plant Sizing Calculation
  No,                                     !- Run Simulation for Sizing Periods
  ,                                       !- Run Simulation for Weather File Run Periods
  0.04,                                   !- Loads Convergence Tolerance Value
  ,                                       !- Temperature Convergence Tolerance Value {deltaC}
  ,                                       !- Solar Distribution
  ,                                       !- Maximum Number of Warmup Days
  2;                                      !- Minimum Number of Warmup Days

OS:Sizing:Parameters,
  {dde5af6f-7923-4600-a28a-7556673a0266}, !- Handle
  1.25,                                   !- Heating Sizing Factor
  1.15;                                   !- Cooling Sizing Factor

OS:ProgramControl,
  {05027a99-f2b3-4aeb-afc6-1425fbb4371d}; !- Handle

OS:Timestep,
  {4ebc9f1e-4707-402e-9844-67eb1ffbd522}, !- Handle
  2;                                      !- Number of Timesteps per Hour

OS:OutputControl:ReportingTolerances,
  {65797aa2-06a9-45fe-b69d-bc6e060399d3}; !- Handle

OS:ConvergenceLimits,
  {9fc11aba-8822-4f3d-970c-46391ba4040d}; !- Handle

OS:ShadowCalculation,
  {ca758bea-4416-4626-9bba-3d8795c79bd6}, !- Handle
  7,                                      !- Calculation Frequency
  15000;                                  !- Maximum Figures in Shadow Overlap Calculations

OS:SurfaceConvectionAlgorithm:Inside,
  {aaabfc36-718a-4ab0-b622-f186ebb45230}, !- Handle
  TARP;                                   !- Algorithm

OS:SurfaceConvectionAlgorithm:Outside,
  {9a0a9f6f-4bbd-4b12-a121-9492a1fcd7d6}, !- Handle
  DOE-2;                                  !- Algorithm

OS:HeatBalanceAlgorithm,
  {9d93e563-e1e0-46d7-9e39-d1c8aceb7212}, !- Handle
  ConductionTransferFunction,             !- Algorithm
  200;                                    !- Surface Temperature Upper Limit {F}

OS:ZoneAirHeatBalanceAlgorithm,
  {8520d93e-310f-4696-9bcd-36228bfdd743}, !- Handle
  AnalyticalSolution;                     !- Algorithm

OS:ZoneAirContaminantBalance,
  {eb5fc3ae-fb22-4160-8fcb-3e3b22b000d3}; !- Handle

OS:ZoneCapacitanceMultiplier:ResearchSpecial,
  {4020ce4f-5a7a-4849-8028-8305d7b751b1}, !- Handle
  ,                                       !- Temperature Capacity Multiplier
  ,                                       !- Humidity Capacity Multiplier
  ;                                       !- Carbon Dioxide Capacity Multiplier

OS:RunPeriod,
  {28df894d-6af9-4fb8-8f56-df1753344aa3}, !- Handle
  Run Period 1,                           !- Name
  1,                                      !- Begin Month
  1,                                      !- Begin Day of Month
  12,                                     !- End Month
  31,                                     !- End Day of Month
  ,                                       !- Use Weather File Holidays and Special Days
  ,                                       !- Use Weather File Daylight Saving Period
  ,                                       !- Apply Weekend Holiday Rule
  ,                                       !- Use Weather File Rain Indicators
  ,                                       !- Use Weather File Snow Indicators
  ;                                       !- Number of Times Runperiod to be Repeated

OS:Building,
  {bf305633-c5a1-4881-9edf-ca5e1a8e1274}, !- Handle
  Building 1,                             !- Name
  ,                                       !- Building Sector Type
  ,                                       !- North Axis {deg}
  ,                                       !- Nominal Floor to Floor Height {m}
  ,                                       !- Space Type Name
  ,                                       !- Default Construction Set Name
  {19355326-8935-4bf2-a86f-690be2bde6e5}, !- Default Schedule Set Name
  ,                                       !- Standards Number of Stories
  ,                                       !- Standards Number of Above Ground Stories
  Office;                                 !- Standards Building Type

OS:LifeCycleCost:Parameters,
  {231cf8a0-f0e7-4251-a99f-11f0d464e661}, !- Handle
  FEMP,                                   !- Analysis Type
  ,                                       !- Discounting Convention
  ,                                       !- Inflation Approach
  ,                                       !- Real Discount Rate
  ,                                       !- Nominal Discount Rate
  ,                                       !- Inflation
  ,                                       !- Base Date Month
  ,                                       !- Base Date Year
  ,                                       !- Service Date Month
  ,                                       !- Service Date Year
  ,                                       !- Length of Study Period in Years
  ,                                       !- Tax Rate
  ,                                       !- Depreciation Method
  Yes;                                    !- Use NIST Fuel Escalation Rates

OS:Facility,
  {3ba8e45b-b833-44eb-a723-ea6c3946dc96}; !- Handle

OS:SpaceType,
  {0ff90f00-8c6f-4d19-b465-aab4c7b47e23}, !- Handle
  Office|BlendA|DOE Ref Pre-1980|ASHRAE 169-2006-5A, !- Name
  {9ed16458-c321-471a-8bab-0cac0ebacf3d}, !- Default Construction Set Name
  ,                                       !- Default Schedule Set Name
  {7a21e72c-df72-48c3-b095-1f69112a58db}, !- Group Rendering Name
  {41413aa4-df94-4e5a-9d32-e561711f9c8c}, !- Design Specification Outdoor Air Object Name
  Office,                                 !- Standards Building Type
  BlendA;                                 !- Standards Space Type

OS:Rendering:Color,
  {7a21e72c-df72-48c3-b095-1f69112a58db}, !- Handle
  Rendering Color 1,                      !- Name
  120,                                    !- Rendering Red Value
  230,                                    !- Rendering Green Value
  199;                                    !- Rendering Blue Value

OS:SpaceType,
  {add919e6-221e-4626-a797-e0fae11a4b59}, !- Handle
  Office|BlendB|DOE Ref Pre-1980|ASHRAE 169-2006-5A, !- Name
  {9ed16458-c321-471a-8bab-0cac0ebacf3d}, !- Default Construction Set Name
  ,                                       !- Default Schedule Set Name
  {28482c87-318d-452a-9ebc-b98e2232067f}, !- Group Rendering Name
  {35289758-7ec9-4d76-8dac-16031c046df1}, !- Design Specification Outdoor Air Object Name
  Office,                                 !- Standards Building Type
  BlendB;                                 !- Standards Space Type

OS:Rendering:Color,
  {28482c87-318d-452a-9ebc-b98e2232067f}, !- Handle
  Rendering Color 2,                      !- Name
  120,                                    !- Rendering Red Value
  149,                                    !- Rendering Green Value
  230;                                    !- Rendering Blue Value

OS:SpaceType,
  {d7a61591-6996-48f6-8701-d32d817e78d8}, !- Handle
  Office|ITRoom|DOE Ref Pre-1980|ASHRAE 169-2006-5A, !- Name
  {9ed16458-c321-471a-8bab-0cac0ebacf3d}, !- Default Construction Set Name
  {65595946-4daf-4986-a757-802bceeb369b}, !- Default Schedule Set Name
  {46a21e2b-ab04-4386-b812-f19648ad4fdf}, !- Group Rendering Name
  {5dc06aeb-8e64-43fe-91d0-dd6de56ff2c3}, !- Design Specification Outdoor Air Object Name
  Office,                                 !- Standards Building Type
  ITRoom;                                 !- Standards Space Type

OS:Rendering:Color,
  {46a21e2b-ab04-4386-b812-f19648ad4fdf}, !- Handle
  Rendering Color 3,                      !- Name
  41,                                     !- Rendering Red Value
  31,                                     !- Rendering Green Value
  169;                                    !- Rendering Blue Value

OS:SpaceType,
  {4884decc-8fcc-4293-8e89-01b29bc4ee9e}, !- Handle
  Office|ElecMechRoom|DOE Ref Pre-1980|ASHRAE 169-2006-5A, !- Name
  {9ed16458-c321-471a-8bab-0cac0ebacf3d}, !- Default Construction Set Name
  {783ee95b-5896-449b-8eb9-ad6e58e693f5}, !- Default Schedule Set Name
  {6ff6a8c2-411a-47cd-b1b5-63b16a42aab0}, !- Group Rendering Name
  {633d0ab9-d3e9-4402-9cc4-c98622873253}, !- Design Specification Outdoor Air Object Name
  Office,                                 !- Standards Building Type
  ElecMechRoom;                           !- Standards Space Type

OS:Rendering:Color,
  {6ff6a8c2-411a-47cd-b1b5-63b16a42aab0}, !- Handle
  Rendering Color 4,                      !- Name
  41,                                     !- Rendering Red Value
  31,                                     !- Rendering Green Value
  169;                                    !- Rendering Blue Value

OS:SpaceType,
  {389b279c-df93-4372-b7ae-1791cd1f92b2}, !- Handle
  Office|PrintRoom|DOE Ref Pre-1980|ASHRAE 169-2006-5A, !- Name
  {9ed16458-c321-471a-8bab-0cac0ebacf3d}, !- Default Construction Set Name
  {23bffc8a-036d-4030-a39f-3198fac314d3}, !- Default Schedule Set Name
  {64c9025e-330f-4e86-974d-98a68427faeb}, !- Group Rendering Name
  {bbbe15c8-1d07-43af-9e4c-fd6e10ca9327}, !- Design Specification Outdoor Air Object Name
  Office,                                 !- Standards Building Type
  PrintRoom;                              !- Standards Space Type

OS:Rendering:Color,
  {64c9025e-330f-4e86-974d-98a68427faeb}, !- Handle
  Rendering Color 5,                      !- Name
  41,                                     !- Rendering Red Value
  31,                                     !- Rendering Green Value
  169;                                    !- Rendering Blue Value

OS:SpaceType,
  {06273d54-fce7-49ef-ae3c-90a03fb2ba85}, !- Handle
  Office|Restroom|DOE Ref Pre-1980|ASHRAE 169-2006-5A, !- Name
  {9ed16458-c321-471a-8bab-0cac0ebacf3d}, !- Default Construction Set Name
  {6912f39d-33cf-4123-a3bb-51f869f6d46e}, !- Default Schedule Set Name
  {9ac0e54d-f1a9-4c0f-acd7-7236ac06282f}, !- Group Rendering Name
  {d9136d30-de42-4de5-8baa-ddd40719251b}, !- Design Specification Outdoor Air Object Name
  Office,                                 !- Standards Building Type
  Restroom;                               !- Standards Space Type

OS:Rendering:Color,
  {9ac0e54d-f1a9-4c0f-acd7-7236ac06282f}, !- Handle
  Rendering Color 6,                      !- Name
  169,                                    !- Rendering Red Value
  169,                                    !- Rendering Green Value
  31;                                     !- Rendering Blue Value

OS:Schedule:Ruleset,
  {4e51d34f-1961-444f-8a61-b3d713af7b5b}, !- Handle
  0800|1700|Office|default|hoo,           !- Name
  {4fe8f9a1-a2f1-492c-a5cd-017988268b24}, !- Schedule Type Limits Name
  {d04392ad-95ad-4b50-86ef-47c91516804e}, !- Default Day Schedule Name
  {f3854af8-1610-4be4-a5f2-c4df0a916b20}, !- Summer Design Day Schedule Name
  {89931727-500d-48a1-8d89-8c32b523dce0}; !- Winter Design Day Schedule Name

OS:Schedule:Day,
  {d04392ad-95ad-4b50-86ef-47c91516804e}, !- Handle
  0800|1700|Office|default|hoo Schedule Week Day, !- Name
  {4fe8f9a1-a2f1-492c-a5cd-017988268b24}, !- Schedule Type Limits Name
  ,                                       !- Interpolate to Timestep
  8,                                      !- Hour 1
  0,                                      !- Minute 1
  0,                                      !- Value Until Time 1
  17,                                     !- Hour 2
  0,                                      !- Minute 2
  1,                                      !- Value Until Time 2
  24,                                     !- Hour 3
  0,                                      !- Minute 3
  0;                                      !- Value Until Time 3

OS:Schedule:Day,
  {a60992ef-35d1-4c1b-b81b-eeccbfcc6cac}, !- Handle
  Schedule Day 2,                         !- Name
  ,                                       !- Schedule Type Limits Name
  ,                                       !- Interpolate to Timestep
  24,                                     !- Hour 1
  0,                                      !- Minute 1
  0;                                      !- Value Until Time 1

OS:Schedule:Day,
  {89931727-500d-48a1-8d89-8c32b523dce0}, !- Handle
  0800|1700|Office|default|hoo Winter Design Day, !- Name
  {4fe8f9a1-a2f1-492c-a5cd-017988268b24}, !- Schedule Type Limits Name
  ,                                       !- Interpolate to Timestep
  24,                                     !- Hour 1
  0,                                      !- Minute 1
  0;                                      !- Value Until Time 1

OS:Schedule:Day,
  {b0c01fe8-b23c-4b32-8e9a-f2e68783916f}, !- Handle
  Schedule Day 3,                         !- Name
  ,                                       !- Schedule Type Limits Name
  ,                                       !- Interpolate to Timestep
  24,                                     !- Hour 1
  0,                                      !- Minute 1
  0;                                      !- Value Until Time 1

OS:Schedule:Day,
  {f3854af8-1610-4be4-a5f2-c4df0a916b20}, !- Handle
  0800|1700|Office|default|hoo Summer Design Day, !- Name
  {4fe8f9a1-a2f1-492c-a5cd-017988268b24}, !- Schedule Type Limits Name
  ,                                       !- Interpolate to Timestep
  24,                                     !- Hour 1
  0,                                      !- Minute 1
  1;                                      !- Value Until Time 1

OS:DefaultScheduleSet,
  {19355326-8935-4bf2-a86f-690be2bde6e5}, !- Handle
  Building Hours of Operation,            !- Name
  {4e51d34f-1961-444f-8a61-b3d713af7b5b}, !- Hours of Operation Schedule Name
  ,                                       !- Number of People Schedule Name
  ,                                       !- People Activity Level Schedule Name
  ,                                       !- Lighting Schedule Name
  ,                                       !- Electric Equipment Schedule Name
  ,                                       !- Gas Equipment Schedule Name
  ,                                       !- Hot Water Equipment Schedule Name
  ,                                       !- Infiltration Schedule Name
  ,                                       !- Steam Equipment Schedule Name
  ;                                       !- Other Equipment Schedule Name

OS:ScheduleTypeLimits,
  {4fe8f9a1-a2f1-492c-a5cd-017988268b24}, !- Handle
  OnOff,                                  !- Name
  0,                                      !- Lower Limit Value {BasedOnField A4}
  1,                                      !- Upper Limit Value {BasedOnField A4}
  Discrete,                               !- Numeric Type
  Availability;                           !- Unit Type

OS:Schedule:Ruleset,
  {b8ae832d-ea7e-498c-b2c6-716815338c6b}, !- Handle
  0800|1700|Office|default|air_velocity,  !- Name
  {5c74339c-b3ea-4af1-bd2a-8f696bbca8b5}, !- Schedule Type Limits Name
  {4018a267-3f69-4d34-bb9a-25ba2aea6ee0}, !- Default Day Schedule Name
  {d2fbbd19-e241-40d8-8059-ee629760ab1d}, !- Summer Design Day Schedule Name
  {23204359-660b-4a90-beb0-061ebdfb454a}; !- Winter Design Day Schedule Name

OS:ScheduleTypeLimits,
  {5c74339c-b3ea-4af1-bd2a-8f696bbca8b5}, !- Handle
  Dimensionless Schedule Type Limits,     !- Name
  ,                                       !- Lower Limit Value {BasedOnField A4}
  ,                                       !- Upper Limit Value {BasedOnField A4}
  Continuous,                             !- Numeric Type
  Dimensionless;                          !- Unit Type

OS:Schedule:Day,
  {4018a267-3f69-4d34-bb9a-25ba2aea6ee0}, !- Handle
  0800|1700|Office|default|air_velocity |default, !- Name
  {5c74339c-b3ea-4af1-bd2a-8f696bbca8b5}, !- Schedule Type Limits Name
  ,                                       !- Interpolate to Timestep
  24,                                     !- Hour 1
  0,                                      !- Minute 1
  0.200152;                               !- Value Until Time 1

OS:Schedule:Day,
  {d2fbbd19-e241-40d8-8059-ee629760ab1d}, !- Handle
  0800|1700|Office|default|air_velocity Summer Design Day, !- Name
  {5c74339c-b3ea-4af1-bd2a-8f696bbca8b5}, !- Schedule Type Limits Name
  ,                                       !- Interpolate to Timestep
  24,                                     !- Hour 1
  0,                                      !- Minute 1
  0.200152;                               !- Value Until Time 1

OS:Schedule:Day,
  {23204359-660b-4a90-beb0-061ebdfb454a}, !- Handle
  0800|1700|Office|default|air_velocity Winter Design Day, !- Name
  {5c74339c-b3ea-4af1-bd2a-8f696bbca8b5}, !- Schedule Type Limits Name
  ,                                       !- Interpolate to Timestep
  24,                                     !- Hour 1
  0,                                      !- Minute 1
  0.200152;                               !- Value Until Time 1

OS:Schedule:Ruleset,
  {379943b0-4685-40fc-822c-391a753fd9cf}, !- Handle
  0800|1700|Office|default|swh_target_temp, !- Name
  {ec8c816b-6135-4990-8489-2ef0372aaead}, !- Schedule Type Limits Name
  {c8f2b8ef-eb58-4bcd-9b69-df2f156aad05}, !- Default Day Schedule Name
  {ceb54051-6e64-4d0c-9c90-f49950441b7e}, !- Summer Design Day Schedule Name
  {69b39bb2-1cf3-464b-8efe-b37b214c085f}; !- Winter Design Day Schedule Name

OS:ScheduleTypeLimits,
  {ec8c816b-6135-4990-8489-2ef0372aaead}, !- Handle
  Temperature Schedule Type Limits,       !- Name
  ,                                       !- Lower Limit Value {BasedOnField A4}
  ,                                       !- Upper Limit Value {BasedOnField A4}
  Continuous,                             !- Numeric Type
  Temperature;                            !- Unit Type

OS:Schedule:Day,
  {c8f2b8ef-eb58-4bcd-9b69-df2f156aad05}, !- Handle
  0800|1700|Office|default|swh_target_temp |default, !- Name
  {ec8c816b-6135-4990-8489-2ef0372aaead}, !- Schedule Type Limits Name
  ,                                       !- Interpolate to Timestep
  24,                                     !- Hour 1
  0,                                      !- Minute 1
  71.1111111111111;                       !- Value Until Time 1

OS:Schedule:Day,
  {ceb54051-6e64-4d0c-9c90-f49950441b7e}, !- Handle
  0800|1700|Office|default|swh_target_temp Summer Design Day, !- Name
  {ec8c816b-6135-4990-8489-2ef0372aaead}, !- Schedule Type Limits Name
  ,                                       !- Interpolate to Timestep
  24,                                     !- Hour 1
  0,                                      !- Minute 1
  71.1111111111111;                       !- Value Until Time 1

OS:Schedule:Day,
  {69b39bb2-1cf3-464b-8efe-b37b214c085f}, !- Handle
  0800|1700|Office|default|swh_target_temp Winter Design Day, !- Name
  {ec8c816b-6135-4990-8489-2ef0372aaead}, !- Schedule Type Limits Name
  ,                                       !- Interpolate to Timestep
  24,                                     !- Hour 1
  0,                                      !- Minute 1
  71.1111111111111;                       !- Value Until Time 1

OS:Schedule:Ruleset,
  {0342671d-c35a-4772-af60-f92499b54ee9}, !- Handle
  0800|1700|Office|ClosedOffice|occ,      !- Name
  {b61db501-5880-44ad-a847-50dd3898ecc0}, !- Schedule Type Limits Name
  {213a0fa1-94cc-47f8-9911-f76965c72432}, !- Default Day Schedule Name
  {beb23e19-4b84-46e0-8f65-5abf428c099d}, !- Summer Design Day Schedule Name
  {2d705c83-1eba-4fe5-9807-d1670bdbbd15}; !- Winter Design Day Schedule Name

OS:ScheduleTypeLimits,
  {b61db501-5880-44ad-a847-50dd3898ecc0}, !- Handle
  Occupancy Schedule Type Limits,         !- Name
  0,                                      !- Lower Limit Value {BasedOnField A4}
  1,                                      !- Upper Limit Value {BasedOnField A4}
  Continuous,                             !- Numeric Type
  Dimensionless;                          !- Unit Type

OS:Schedule:Day,
  {213a0fa1-94cc-47f8-9911-f76965c72432}, !- Handle
  0800|1700|Office|ClosedOffice|occ |default, !- Name
  {b61db501-5880-44ad-a847-50dd3898ecc0}, !- Schedule Type Limits Name
  ,                                       !- Interpolate to Timestep
  5,                                      !- Hour 1
  0,                                      !- Minute 1
  0,                                      !- Value Until Time 1
  5,                                      !- Hour 2
  30,                                     !- Minute 2
  0.05,                                   !- Value Until Time 2
  6,                                      !- Hour 3
  0,                                      !- Minute 3
  0.1,                                    !- Value Until Time 3
  6,                                      !- Hour 4
  30,                                     !- Minute 4
  0.15,                                   !- Value Until Time 4
  7,                                      !- Hour 5
  0,                                      !- Minute 5
  0.2,                                    !- Value Until Time 5
  7,                                      !- Hour 6
  30,                                     !- Minute 6
  0.25,                                   !- Value Until Time 6
  8,                                      !- Hour 7
  0,                                      !- Minute 7
  0.3,                                    !- Value Until Time 7
  12,                                     !- Hour 8
  0,                                      !- Minute 8
  0.85,                                   !- Value Until Time 8
  13,                                     !- Hour 9
  0,                                      !- Minute 9
  0.51,                                   !- Value Until Time 9
  17,                                     !- Hour 10
  0,                                      !- Minute 10
  0.85,                                   !- Value Until Time 10
  17,                                     !- Hour 11
  30,                                     !- Minute 11
  0.76,                                   !- Value Until Time 11
  18,                                     !- Hour 12
  0,                                      !- Minute 12
  0.68,                                   !- Value Until Time 12
  18,                                     !- Hour 13
  30,                                     !- Minute 13
  0.6,                                    !- Value Until Time 13
  19,                                     !- Hour 14
  0,                                      !- Minute 14
  0.51,                                   !- Value Until Time 14
  19,                                     !- Hour 15
  30,                                     !- Minute 15
  0.43,                                   !- Value Until Time 15
  20,                                     !- Hour 16
  0,                                      !- Minute 16
  0.34,                                   !- Value Until Time 16
  20,                                     !- Hour 17
  30,                                     !- Minute 17
  0.26,                                   !- Value Until Time 17
  21,                                     !- Hour 18
  0,                                      !- Minute 18
  0.17,                                   !- Value Until Time 18
  21,                                     !- Hour 19
  30,                                     !- Minute 19
  0.09,                                   !- Value Until Time 19
  24,                                     !- Hour 20
  0,                                      !- Minute 20
  0;                                      !- Value Until Time 20

OS:Schedule:Day,
  {beb23e19-4b84-46e0-8f65-5abf428c099d}, !- Handle
  0800|1700|Office|ClosedOffice|occ Summer Design Day, !- Name
  {b61db501-5880-44ad-a847-50dd3898ecc0}, !- Schedule Type Limits Name
  ,                                       !- Interpolate to Timestep
  5,                                      !- Hour 1
  0,                                      !- Minute 1
  0,                                      !- Value Until Time 1
  5,                                      !- Hour 2
  30,                                     !- Minute 2
  0.05,                                   !- Value Until Time 2
  6,                                      !- Hour 3
  0,                                      !- Minute 3
  0.1,                                    !- Value Until Time 3
  6,                                      !- Hour 4
  30,                                     !- Minute 4
  0.15,                                   !- Value Until Time 4
  7,                                      !- Hour 5
  0,                                      !- Minute 5
  0.2,                                    !- Value Until Time 5
  7,                                      !- Hour 6
  30,                                     !- Minute 6
  0.25,                                   !- Value Until Time 6
  20,                                     !- Hour 7
  0,                                      !- Minute 7
  1,                                      !- Value Until Time 7
  20,                                     !- Hour 8
  30,                                     !- Minute 8
  0.26,                                   !- Value Until Time 8
  21,                                     !- Hour 9
  0,                                      !- Minute 9
  0.17,                                   !- Value Until Time 9
  21,                                     !- Hour 10
  30,                                     !- Minute 10
  0.09,                                   !- Value Until Time 10
  24,                                     !- Hour 11
  0,                                      !- Minute 11
  0;                                      !- Value Until Time 11

OS:Schedule:Day,
  {2d705c83-1eba-4fe5-9807-d1670bdbbd15}, !- Handle
  0800|1700|Office|ClosedOffice|occ Winter Design Day, !- Name
  {b61db501-5880-44ad-a847-50dd3898ecc0}, !- Schedule Type Limits Name
  ,                                       !- Interpolate to Timestep
  24,                                     !- Hour 1
  0,                                      !- Minute 1
  0;                                      !- Value Until Time 1

OS:Schedule:Rule,
  {0e4d7c61-b8c7-400e-b9b8-ce9daefcb6ca}, !- Handle
  0800|1700|Office|ClosedOffice|occ |1/1-12/31|Sun Rule, !- Name
  {0342671d-c35a-4772-af60-f92499b54ee9}, !- Schedule Ruleset Name
  0,                                      !- Rule Order
  {ecf470a0-a6f3-4c76-8e02-bd793663f4ad}, !- Day Schedule Name
  Yes,                                    !- Apply Sunday
  ,                                       !- Apply Monday
  ,                                       !- Apply Tuesday
  ,                                       !- Apply Wednesday
  ,                                       !- Apply Thursday
  ,                                       !- Apply Friday
  ,                                       !- Apply Saturday
  ,                                       !- Apply Holiday
  DateRange,                              !- Date Specification Type
  1,                                      !- Start Month
  1,                                      !- Start Day
  12,                                     !- End Month
  31;                                     !- End Day

OS:Schedule:Day,
  {ecf470a0-a6f3-4c76-8e02-bd793663f4ad}, !- Handle
  0800|1700|Office|ClosedOffice|occ |1/1-12/31|Sun, !- Name
  {b61db501-5880-44ad-a847-50dd3898ecc0}, !- Schedule Type Limits Name
  ,                                       !- Interpolate to Timestep
  24,                                     !- Hour 1
  0,                                      !- Minute 1
  0;                                      !- Value Until Time 1

OS:Schedule:Rule,
  {d2e8b6f4-76b2-4097-af80-cfed74b3c85c}, !- Handle
  0800|1700|Office|ClosedOffice|occ |1/1-12/31|Sat Rule, !- Name