
OS:Version,
  {e183c674-5c28-4ba9-b972-bce8317c8e76}, !- Handle
  1.6.0;                                  !- Version Identifier

OS:ClimateZones,
  {135edfab-17e7-40db-a436-27d385a8cd6d}, !- Handle
  ,                                       !- Active Institution
  ,                                       !- Active Year
  ASHRAE,                                 !- Climate Zone Institution Name 1
  ANSI/ASHRAE Standard 169,               !- Climate Zone Document Name 1
  2006,                                   !- Climate Zone Document Year 1
  ,                                       !- Climate Zone Value 1
  CEC,                                    !- Climate Zone Institution Name 2
  California Climate Zone Descriptions,   !- Climate Zone Document Name 2
  1995,                                   !- Climate Zone Document Year 2
  ;                                       !- Climate Zone Value 2

OS:YearDescription,
  {513d8dda-86cb-442a-b01c-1f7f0e0ac70e}; !- Handle

OS:RadianceParameters,
  {270a96f1-3c86-4b75-a667-cdf22790e2c8}, !- Handle
  1,                                      !- Accumulated Rays per Record
  0,                                      !- Direct Threshold
  1,                                      !- Direct Certainty
  1,                                      !- Direct Jitter
  1,                                      !- Direct Pretest
  6,                                      !- Ambient Bounces VMX
  2,                                      !- Ambient Bounces DMX
  4050,                                   !- Ambient Divisions VMX
  512,                                    !- Ambient Divisions DMX
  256,                                    !- Ambient Supersamples
  0.001,                                  !- Limit Weight VMX
  0.001,                                  !- Limit Weight DMX
  500,                                    !- Klems Sampling Density
  146;                                    !- Sky Discretization Resolution

OS:SimulationControl,
  {2c487a4c-bac9-4ac5-b669-1e49d9da7c2b}, !- Handle
  ,                                       !- Do Zone Sizing Calculation
  ,                                       !- Do System Sizing Calculation
  ,                                       !- Do Plant Sizing Calculation
  No,                                     !- Run Simulation for Sizing Periods
  ,                                       !- Run Simulation for Weather File Run Periods
  0.04,                                   !- Loads Convergence Tolerance Value
  ,                                       !- Temperature Convergence Tolerance Value {deltaC}
  ,                                       !- Solar Distribution
  ,                                       !- Maximum Number of Warmup Days
  2;                                      !- Minimum Number of Warmup Days

OS:Sizing:Parameters,
  {dde5af6f-7923-4600-a28a-7556673a0266}, !- Handle
  1.25,                                   !- Heating Sizing Factor
  1.15;                                   !- Cooling Sizing Factor

OS:ProgramControl,
  {05027a99-f2b3-4aeb-afc6-1425fbb4371d}; !- Handle

OS:Timestep,
  {4ebc9f1e-4707-402e-9844-67eb1ffbd522}, !- Handle
  2;                                      !- Number of Timesteps per Hour

OS:OutputControl:ReportingTolerances,
  {65797aa2-06a9-45fe-b69d-bc6e060399d3}; !- Handle

OS:ConvergenceLimits,
  {9fc11aba-8822-4f3d-970c-46391ba4040d}; !- Handle

OS:ShadowCalculation,
  {ca758bea-4416-4626-9bba-3d8795c79bd6}, !- Handle
  7,                                      !- Calculation Frequency
  15000;                                  !- Maximum Figures in Shadow Overlap Calculations

OS:SurfaceConvectionAlgorithm:Inside,
  {aaabfc36-718a-4ab0-b622-f186ebb45230}, !- Handle
  TARP;                                   !- Algorithm

OS:SurfaceConvectionAlgorithm:Outside,
  {9a0a9f6f-4bbd-4b12-a121-9492a1fcd7d6}, !- Handle
  DOE-2;                                  !- Algorithm

OS:HeatBalanceAlgorithm,
  {9d93e563-e1e0-46d7-9e39-d1c8aceb7212}, !- Handle
  ConductionTransferFunction,             !- Algorithm
  200;                                    !- Surface Temperature Upper Limit {F}

OS:ZoneAirHeatBalanceAlgorithm,
  {8520d93e-310f-4696-9bcd-36228bfdd743}, !- Handle
  AnalyticalSolution;                     !- Algorithm

OS:ZoneAirContaminantBalance,
  {eb5fc3ae-fb22-4160-8fcb-3e3b22b000d3}; !- Handle

OS:ZoneCapacitanceMultiplier:ResearchSpecial,
  {4020ce4f-5a7a-4849-8028-8305d7b751b1}, !- Handle
  ,                                       !- Temperature Capacity Multiplier
  ,                                       !- Humidity Capacity Multiplier
  ;                                       !- Carbon Dioxide Capacity Multiplier

OS:RunPeriod,
  {28df894d-6af9-4fb8-8f56-df1753344aa3}, !- Handle
  Run Period 1,                           !- Name
  1,                                      !- Begin Month
  1,                                      !- Begin Day of Month
  12,                                     !- End Month
  31,                                     !- End Day of Month
  ,                                       !- Use Weather File Holidays and Special Days
  ,                                       !- Use Weather File Daylight Saving Period
  ,                                       !- Apply Weekend Holiday Rule
  ,                                       !- Use Weather File Rain Indicators
  ,                                       !- Use Weather File Snow Indicators
  ;                                       !- Number of Times Runperiod to be Repeated

OS:Building,
  {bf305633-c5a1-4881-9edf-ca5e1a8e1274}, !- Handle
  Building 1,                             !- Name
  ,                                       !- Building Sector Type
  ,                                       !- North Axis {deg}
  ,                                       !- Nominal Floor to Floor Height {m}
  ,                                       !- Space Type Name
  ,                                       !- Default Construction Set Name
  {9766483f-aa09-4bb6-b154-4d6445030128}, !- Default Schedule Set Name
  ,                                       !- Standards Number of Stories
  ,                                       !- Standards Number of Above Ground Stories
  Office;                                 !- Standards Building Type

OS:LifeCycleCost:Parameters,
  {231cf8a0-f0e7-4251-a99f-11f0d464e661}, !- Handle
  FEMP,                                   !- Analysis Type
  ,                                       !- Discounting Convention
  ,                                       !- Inflation Approach
  ,                                       !- Real Discount Rate
  ,                                       !- Nominal Discount Rate
  ,                                       !- Inflation
  ,                                       !- Base Date Month
  ,                                       !- Base Date Year
  ,                                       !- Service Date Month
  ,                                       !- Service Date Year
  ,                                       !- Length of Study Period in Years
  ,                                       !- Tax Rate
  ,                                       !- Depreciation Method
  Yes;                                    !- Use NIST Fuel Escalation Rates

OS:Facility,
  {3ba8e45b-b833-44eb-a723-ea6c3946dc96}; !- Handle

OS:SpaceType,
  {a5fa5ac9-3846-4120-85d8-93dc28abf4c0}, !- Handle
  Office|BlendA|DOE Ref 1980-2004|ASHRAE 169-2006-5A, !- Name
  {3bec7a6a-d8bc-4a64-844b-bf5779ffc7d9}, !- Default Construction Set Name
  ,                                       !- Default Schedule Set Name
  {1f7ba930-6df6-4da8-9e30-e965c762028b}, !- Group Rendering Name
  {c92910f7-9dec-449e-b48c-37f13750a0e7}, !- Design Specification Outdoor Air Object Name
  Office,                                 !- Standards Building Type
  BlendA;                                 !- Standards Space Type

OS:Rendering:Color,
  {1f7ba930-6df6-4da8-9e30-e965c762028b}, !- Handle
  Rendering Color 1,                      !- Name
  120,                                    !- Rendering Red Value
  230,                                    !- Rendering Green Value
  199;                                    !- Rendering Blue Value

OS:SpaceType,
  {5cc99c84-9839-4189-ab25-aae844e73bcd}, !- Handle
  Office|BlendB|DOE Ref 1980-2004|ASHRAE 169-2006-5A, !- Name
  {3bec7a6a-d8bc-4a64-844b-bf5779ffc7d9}, !- Default Construction Set Name
  ,                                       !- Default Schedule Set Name
  {874dd729-3c2c-4c5b-9004-ac932dcb12bc}, !- Group Rendering Name
  {2676f40f-1028-48b4-870a-16c479dfbae9}, !- Design Specification Outdoor Air Object Name
  Office,                                 !- Standards Building Type
  BlendB;                                 !- Standards Space Type

OS:Rendering:Color,
  {874dd729-3c2c-4c5b-9004-ac932dcb12bc}, !- Handle
  Rendering Color 2,                      !- Name
  120,                                    !- Rendering Red Value
  149,                                    !- Rendering Green Value
  230;                                    !- Rendering Blue Value

OS:SpaceType,
  {5d6d20c4-0de5-44e2-95f4-ca1cbaa42720}, !- Handle
  Office|ITRoom|DOE Ref 1980-2004|ASHRAE 169-2006-5A, !- Name
  {3bec7a6a-d8bc-4a64-844b-bf5779ffc7d9}, !- Default Construction Set Name
  {610505d3-db2b-4eb4-b826-58adf515a9dc}, !- Default Schedule Set Name
  {ba28f12c-51e5-4fec-ad60-2b50deec41ed}, !- Group Rendering Name
  {323cda45-c679-4685-8343-ff6c80d4e02f}, !- Design Specification Outdoor Air Object Name
  Office,                                 !- Standards Building Type
  ITRoom;                                 !- Standards Space Type

OS:Rendering:Color,
  {ba28f12c-51e5-4fec-ad60-2b50deec41ed}, !- Handle
  Rendering Color 3,                      !- Name
  41,                                     !- Rendering Red Value
  31,                                     !- Rendering Green Value
  169;                                    !- Rendering Blue Value

OS:SpaceType,
  {1807f665-f758-4ffa-ba58-4ee9124292e8}, !- Handle
  Office|ElecMechRoom|DOE Ref 1980-2004|ASHRAE 169-2006-5A, !- Name
  {3bec7a6a-d8bc-4a64-844b-bf5779ffc7d9}, !- Default Construction Set Name
  {970588ca-1296-4d2f-aabf-f072fa3f6390}, !- Default Schedule Set Name
  {db907946-1531-4b0c-a4c9-23f421e572a1}, !- Group Rendering Name
  {7d75b3e2-cb9b-41bd-9ce6-87e3b7830e8f}, !- Design Specification Outdoor Air Object Name
  Office,                                 !- Standards Building Type
  ElecMechRoom;                           !- Standards Space Type

OS:Rendering:Color,
  {db907946-1531-4b0c-a4c9-23f421e572a1}, !- Handle
  Rendering Color 4,                      !- Name
  41,                                     !- Rendering Red Value
  31,                                     !- Rendering Green Value
  169;                                    !- Rendering Blue Value

OS:SpaceType,
  {3e01cd9d-6ee1-4613-8cb3-da096e90cba7}, !- Handle
  Office|PrintRoom|DOE Ref 1980-2004|ASHRAE 169-2006-5A, !- Name
  {3bec7a6a-d8bc-4a64-844b-bf5779ffc7d9}, !- Default Construction Set Name
  {b22d33c8-67d1-4311-bdd9-a886c5075a47}, !- Default Schedule Set Name
  {2a8df5ed-3cb1-4004-841f-d3600497ebde}, !- Group Rendering Name
  {a624d3b8-4233-4bd7-8653-7ce92b085ea1}, !- Design Specification Outdoor Air Object Name
  Office,                                 !- Standards Building Type
  PrintRoom;                              !- Standards Space Type

OS:Rendering:Color,
  {2a8df5ed-3cb1-4004-841f-d3600497ebde}, !- Handle
  Rendering Color 5,                      !- Name
  41,                                     !- Rendering Red Value
  31,                                     !- Rendering Green Value
  169;                                    !- Rendering Blue Value

OS:SpaceType,
  {bfac6b1b-a61b-4fe2-a2d9-3ec7e31fdea8}, !- Handle
  Office|Restroom|DOE Ref 1980-2004|ASHRAE 169-2006-5A, !- Name
  {3bec7a6a-d8bc-4a64-844b-bf5779ffc7d9}, !- Default Construction Set Name
  {4dc18a43-8be0-4f4c-b1ec-6fd1de3524da}, !- Default Schedule Set Name
  {18c2f596-ed46-4ba2-8e7c-e424d651b6de}, !- Group Rendering Name
  {5b2f2441-4f12-4250-96f7-09c226398637}, !- Design Specification Outdoor Air Object Name
  Office,                                 !- Standards Building Type
  Restroom;                               !- Standards Space Type

OS:Rendering:Color,
  {18c2f596-ed46-4ba2-8e7c-e424d651b6de}, !- Handle
  Rendering Color 6,                      !- Name
  169,                                    !- Rendering Red Value
  169,                                    !- Rendering Green Value
  31;                                     !- Rendering Blue Value

OS:Schedule:Ruleset,
  {dd09ab75-81b3-4b99-b54f-72115d3138a1}, !- Handle
  0800|1700|Office|default|hoo,           !- Name
  {fe135d20-9280-46f7-a156-ca97f3eaf375}, !- Schedule Type Limits Name
  {8591c93b-eeb7-4079-a10e-a1bb8985da74}, !- Default Day Schedule Name
  {eb047cd7-852d-4fe9-bcfc-ff23a94b7306}, !- Summer Design Day Schedule Name
  {301409f6-e1b2-4ea5-89d2-9609ef0c4c2c}; !- Winter Design Day Schedule Name

OS:Schedule:Day,
  {8591c93b-eeb7-4079-a10e-a1bb8985da74}, !- Handle
  0800|1700|Office|default|hoo Schedule Week Day, !- Name
  {fe135d20-9280-46f7-a156-ca97f3eaf375}, !- Schedule Type Limits Name
  ,                                       !- Interpolate to Timestep
  8,                                      !- Hour 1
  0,                                      !- Minute 1
  0,                                      !- Value Until Time 1
  17,                                     !- Hour 2
  0,                                      !- Minute 2
  1,                                      !- Value Until Time 2
  24,                                     !- Hour 3
  0,                                      !- Minute 3
  0;                                      !- Value Until Time 3

OS:Schedule:Day,
  {08664f56-e101-48cb-a57d-4c59c7cc7225}, !- Handle
  Schedule Day 2,                         !- Name
  ,                                       !- Schedule Type Limits Name
  ,                                       !- Interpolate to Timestep
  24,                                     !- Hour 1
  0,                                      !- Minute 1
  0;                                      !- Value Until Time 1

OS:Schedule:Day,
  {301409f6-e1b2-4ea5-89d2-9609ef0c4c2c}, !- Handle
  0800|1700|Office|default|hoo Winter Design Day, !- Name
  {fe135d20-9280-46f7-a156-ca97f3eaf375}, !- Schedule Type Limits Name
  ,                                       !- Interpolate to Timestep
  24,                                     !- Hour 1
  0,                                      !- Minute 1
  0;                                      !- Value Until Time 1

OS:Schedule:Day,
  {c54e96cd-ebdf-457c-910e-b94e0d4d9b5b}, !- Handle
  Schedule Day 3,                         !- Name
  ,                                       !- Schedule Type Limits Name
  ,                                       !- Interpolate to Timestep
  24,                                     !- Hour 1
  0,                                      !- Minute 1
  0;                                      !- Value Until Time 1

OS:Schedule:Day,
  {eb047cd7-852d-4fe9-bcfc-ff23a94b7306}, !- Handle
  0800|1700|Office|default|hoo Summer Design Day, !- Name
  {fe135d20-9280-46f7-a156-ca97f3eaf375}, !- Schedule Type Limits Name
  ,                                       !- Interpolate to Timestep
  24,                                     !- Hour 1
  0,                                      !- Minute 1
  1;                                      !- Value Until Time 1

OS:DefaultScheduleSet,
  {9766483f-aa09-4bb6-b154-4d6445030128}, !- Handle
  Building Hours of Operation,            !- Name
  {dd09ab75-81b3-4b99-b54f-72115d3138a1}, !- Hours of Operation Schedule Name
  ,                                       !- Number of People Schedule Name
  ,                                       !- People Activity Level Schedule Name
  ,                                       !- Lighting Schedule Name
  ,                                       !- Electric Equipment Schedule Name
  ,                                       !- Gas Equipment Schedule Name
  ,                                       !- Hot Water Equipment Schedule Name
  ,                                       !- Infiltration Schedule Name
  ,                                       !- Steam Equipment Schedule Name
  ;                                       !- Other Equipment Schedule Name

OS:ScheduleTypeLimits,
  {fe135d20-9280-46f7-a156-ca97f3eaf375}, !- Handle
  OnOff,                                  !- Name
  0,                                      !- Lower Limit Value {BasedOnField A4}
  1,                                      !- Upper Limit Value {BasedOnField A4}
  Discrete,                               !- Numeric Type
  Availability;                           !- Unit Type

OS:Schedule:Ruleset,
  {ef8d142d-6918-4a1d-bbce-6097b507f599}, !- Handle
  0800|1700|Office|default|air_velocity,  !- Name
  {d28057d0-3533-4b0c-a69d-2f749941205d}, !- Schedule Type Limits Name
  {099460e5-2878-4d61-bc20-3036f357778a}, !- Default Day Schedule Name
  {6ab96577-95c6-42db-b23d-0ad14df9cd12}, !- Summer Design Day Schedule Name
  {bb391fd4-1592-48ce-9760-a38063283039}; !- Winter Design Day Schedule Name

OS:ScheduleTypeLimits,
  {d28057d0-3533-4b0c-a69d-2f749941205d}, !- Handle
  Dimensionless Schedule Type Limits,     !- Name
  ,                                       !- Lower Limit Value {BasedOnField A4}
  ,                                       !- Upper Limit Value {BasedOnField A4}
  Continuous,                             !- Numeric Type
  Dimensionless;                          !- Unit Type

OS:Schedule:Day,
  {099460e5-2878-4d61-bc20-3036f357778a}, !- Handle
  0800|1700|Office|default|air_velocity |default, !- Name
  {d28057d0-3533-4b0c-a69d-2f749941205d}, !- Schedule Type Limits Name
  ,                                       !- Interpolate to Timestep
  24,                                     !- Hour 1
  0,                                      !- Minute 1
  0.200152;                               !- Value Until Time 1

OS:Schedule:Day,
  {6ab96577-95c6-42db-b23d-0ad14df9cd12}, !- Handle
  0800|1700|Office|default|air_velocity Summer Design Day, !- Name
  {d28057d0-3533-4b0c-a69d-2f749941205d}, !- Schedule Type Limits Name
  ,                                       !- Interpolate to Timestep
  24,                                     !- Hour 1
  0,                                      !- Minute 1
  0.200152;                               !- Value Until Time 1

OS:Schedule:Day,
  {bb391fd4-1592-48ce-9760-a38063283039}, !- Handle
  0800|1700|Office|default|air_velocity Winter Design Day, !- Name
  {d28057d0-3533-4b0c-a69d-2f749941205d}, !- Schedule Type Limits Name
  ,                                       !- Interpolate to Timestep
  24,                                     !- Hour 1
  0,                                      !- Minute 1
  0.200152;                               !- Value Until Time 1

OS:Schedule:Ruleset,
  {c7f99718-5014-4c09-93f7-75cc0bbdc509}, !- Handle
  0800|1700|Office|default|swh_target_temp, !- Name
  {8051a957-7ba9-4381-8871-658ffe92c438}, !- Schedule Type Limits Name
  {a6867a95-7cc4-46ff-bd21-a5d7af62974b}, !- Default Day Schedule Name
  {578ad3a6-a7e0-4942-950e-76ca30ed498c}, !- Summer Design Day Schedule Name
  {5e895bd7-a1e2-4c59-840d-a1103a124d6c}; !- Winter Design Day Schedule Name

OS:ScheduleTypeLimits,
  {8051a957-7ba9-4381-8871-658ffe92c438}, !- Handle
  Temperature Schedule Type Limits,       !- Name
  ,                                       !- Lower Limit Value {BasedOnField A4}
  ,                                       !- Upper Limit Value {BasedOnField A4}
  Continuous,                             !- Numeric Type
  Temperature;                            !- Unit Type

OS:Schedule:Day,
  {a6867a95-7cc4-46ff-bd21-a5d7af62974b}, !- Handle
  0800|1700|Office|default|swh_target_temp |default, !- Name
  {8051a957-7ba9-4381-8871-658ffe92c438}, !- Schedule Type Limits Name
  ,                                       !- Interpolate to Timestep
  24,                                     !- Hour 1
  0,                                      !- Minute 1
  71.1111111111111;                       !- Value Until Time 1

OS:Schedule:Day,
  {578ad3a6-a7e0-4942-950e-76ca30ed498c}, !- Handle
  0800|1700|Office|default|swh_target_temp Summer Design Day, !- Name
  {8051a957-7ba9-4381-8871-658ffe92c438}, !- Schedule Type Limits Name
  ,                                       !- Interpolate to Timestep
  24,                                     !- Hour 1
  0,                                      !- Minute 1
  71.1111111111111;                       !- Value Until Time 1

OS:Schedule:Day,
  {5e895bd7-a1e2-4c59-840d-a1103a124d6c}, !- Handle
  0800|1700|Office|default|swh_target_temp Winter Design Day, !- Name
  {8051a957-7ba9-4381-8871-658ffe92c438}, !- Schedule Type Limits Name
  ,                                       !- Interpolate to Timestep
  24,                                     !- Hour 1
  0,                                      !- Minute 1
  71.1111111111111;                       !- Value Until Time 1

OS:Schedule:Ruleset,
  {967686e7-86e5-45d4-97c1-d0a4b4ed03bf}, !- Handle
  0800|1700|Office|ClosedOffice|occ,      !- Name
  {2123683d-73dc-4b81-9dc6-5e279dfb1ae8}, !- Schedule Type Limits Name
  {aaf908c8-9be3-4749-a285-6e97501325a0}, !- Default Day Schedule Name
  {8b9cd711-c2f3-478d-bb3d-20d6543eb0db}, !- Summer Design Day Schedule Name
  {11a2049b-2f89-4eb1-a1ca-269b1f621bb7}; !- Winter Design Day Schedule Name

OS:ScheduleTypeLimits,
  {2123683d-73dc-4b81-9dc6-5e279dfb1ae8}, !- Handle
  Occupancy Schedule Type Limits,         !- Name
  0,                                      !- Lower Limit Value {BasedOnField A4}
  1,                                      !- Upper Limit Value {BasedOnField A4}
  Continuous,                             !- Numeric Type
  Dimensionless;                          !- Unit Type

OS:Schedule:Day,
  {aaf908c8-9be3-4749-a285-6e97501325a0}, !- Handle
  0800|1700|Office|ClosedOffice|occ |default, !- Name
  {2123683d-73dc-4b81-9dc6-5e279dfb1ae8}, !- Schedule Type Limits Name
  ,                                       !- Interpolate to Timestep
  5,                                      !- Hour 1
  0,                                      !- Minute 1
  0,                                      !- Value Until Time 1
  5,                                      !- Hour 2
  30,                                     !- Minute 2
  0.05,                                   !- Value Until Time 2
  6,                                      !- Hour 3
  0,                                      !- Minute 3
  0.1,                                    !- Value Until Time 3
  6,                                      !- Hour 4
  30,                                     !- Minute 4
  0.15,                                   !- Value Until Time 4
  7,                                      !- Hour 5
  0,                                      !- Minute 5
  0.2,                                    !- Value Until Time 5
  7,                                      !- Hour 6
  30,                                     !- Minute 6
  0.25,                                   !- Value Until Time 6
  8,                                      !- Hour 7
  0,                                      !- Minute 7
  0.3,                                    !- Value Until Time 7
  12,                                     !- Hour 8
  0,                                      !- Minute 8
  0.85,                                   !- Value Until Time 8
  13,                                     !- Hour 9
  0,                                      !- Minute 9
  0.51,                                   !- Value Until Time 9
  17,                                     !- Hour 10
  0,                                      !- Minute 10
  0.85,                                   !- Value Until Time 10
  17,                                     !- Hour 11
  30,                                     !- Minute 11
  0.76,                                   !- Value Until Time 11
  18,                                     !- Hour 12
  0,                                      !- Minute 12
  0.68,                                   !- Value Until Time 12
  18,                                     !- Hour 13
  30,                                     !- Minute 13
  0.6,                                    !- Value Until Time 13
  19,                                     !- Hour 14
  0,                                      !- Minute 14
  0.51,                                   !- Value Until Time 14
  19,                                     !- Hour 15
  30,                                     !- Minute 15
  0.43,                                   !- Value Until Time 15
  20,                                     !- Hour 16
  0,                                      !- Minute 16
  0.34,                                   !- Value Until Time 16
  20,                                     !- Hour 17
  30,                                     !- Minute 17
  0.26,                                   !- Value Until Time 17
  21,                                     !- Hour 18
  0,                                      !- Minute 18
  0.17,                                   !- Value Until Time 18
  21,                                     !- Hour 19
  30,                                     !- Minute 19
  0.09,                                   !- Value Until Time 19
  24,                                     !- Hour 20
  0,                                      !- Minute 20
  0;                                      !- Value Until Time 20

OS:Schedule:Day,
  {8b9cd711-c2f3-478d-bb3d-20d6543eb0db}, !- Handle
  0800|1700|Office|ClosedOffice|occ Summer Design Day, !- Name
  {2123683d-73dc-4b81-9dc6-5e279dfb1ae8}, !- Schedule Type Limits Name
  ,                                       !- Interpolate to Timestep
  5,                                      !- Hour 1
  0,                                      !- Minute 1
  0,                                      !- Value Until Time 1
  5,                                      !- Hour 2
  30,                                     !- Minute 2
  0.05,                                   !- Value Until Time 2
  6,                                      !- Hour 3
  0,                                      !- Minute 3
  0.1,                                    !- Value Until Time 3
  6,                                      !- Hour 4
  30,                                     !- Minute 4
  0.15,                                   !- Value Until Time 4
  7,                                      !- Hour 5
  0,                                      !- Minute 5
  0.2,                                    !- Value Until Time 5
  7,                                      !- Hour 6
  30,                                     !- Minute 6
  0.25,                                   !- Value Until Time 6
  20,                                     !- Hour 7
  0,                                      !- Minute 7
  1,                                      !- Value Until Time 7
  20,                                     !- Hour 8
  30,                                     !- Minute 8
  0.26,                                   !- Value Until Time 8
  21,                                     !- Hour 9
  0,                                      !- Minute 9
  0.17,                                   !- Value Until Time 9
  21,                                     !- Hour 10
  30,                                     !- Minute 10
  0.09,                                   !- Value Until Time 10
  24,                                     !- Hour 11
  0,                                      !- Minute 11
  0;                                      !- Value Until Time 11

OS:Schedule:Day,
  {11a2049b-2f89-4eb1-a1ca-269b1f621bb7}, !- Handle
  0800|1700|Office|ClosedOffice|occ Winter Design Day, !- Name
  {2123683d-73dc-4b81-9dc6-5e279dfb1ae8}, !- Schedule Type Limits Name
  ,                                       !- Interpolate to Timestep
  24,                                     !- Hour 1
  0,                                      !- Minute 1
  0;                                      !- Value Until Time 1

OS:Schedule:Rule,
  {16f6b6ae-9b03-43ff-8ffc-15f38f0ea804}, !- Handle
  0800|1700|Office|ClosedOffice|occ |1/1-12/31|Sun Rule, !- Name
  {967686e7-86e5-45d4-97c1-d0a4b4ed03bf}, !- Schedule Ruleset Name
  0,                                      !- Rule Order
  {131b5b66-5da3-4bf7-81d9-30604051882f}, !- Day Schedule Name
  Yes,                                    !- Apply Sunday
  ,                                       !- Apply Monday
  ,                                       !- Apply Tuesday
  ,                                       !- Apply Wednesday
  ,                                       !- Apply Thursday
  ,                                       !- Apply Friday
  ,                                       !- Apply Saturday
  ,                                       !- Apply Holiday
  DateRange,                              !- Date Specification Type
  1,                                      !- Start Month
  1,                                      !- Start Day
  12,                                     !- End Month
  31;                                     !- End Day

OS:Schedule:Day,
  {131b5b66-5da3-4bf7-81d9-30604051882f}, !- Handle
  0800|1700|Office|ClosedOffice|occ |1/1-12/31|Sun, !- Name
  {2123683d-73dc-4b81-9dc6-5e279dfb1ae8}, !- Schedule Type Limits Name
  ,                                       !- Interpolate to Timestep
  24,                                     !- Hour 1
  0,                                      !- Minute 1
  0;                                      !- Value Until Time 1

OS:Schedule:Rule,
  {94ad13ff-0374-4185-b671-448ad37ba4cd}, !- Handle
  0800|1700|Office|ClosedOffice|occ |1/1-12/31|Sat Rule, !- Name