
OS:Version,
  {378070b0-b325-4213-8bc5-183f945dee50}, !- Handle
  1.5.5;                                  !- Version Identifier

OS:ClimateZones,
  {135edfab-17e7-40db-a436-27d385a8cd6d}, !- Handle
  ,                                       !- Active Institution
  ,                                       !- Active Year
  ASHRAE,                                 !- Climate Zone Institution Name 1
  ANSI/ASHRAE Standard 169,               !- Climate Zone Document Name 1
  2006,                                   !- Climate Zone Document Year 1
  ,                                       !- Climate Zone Value 1
  CEC,                                    !- Climate Zone Institution Name 2
  California Climate Zone Descriptions,   !- Climate Zone Document Name 2
  1995,                                   !- Climate Zone Document Year 2
  ;                                       !- Climate Zone Value 2

OS:YearDescription,
  {513d8dda-86cb-442a-b01c-1f7f0e0ac70e}; !- Handle

OS:RadianceParameters,
  {270a96f1-3c86-4b75-a667-cdf22790e2c8}, !- Handle
  1,                                      !- Accumulated Rays per Record
  0,                                      !- Direct Threshold
  1,                                      !- Direct Certainty
  1,                                      !- Direct Jitter
  1,                                      !- Direct Pretest
  6,                                      !- Ambient Bounces VMX
  2,                                      !- Ambient Bounces DMX
  4050,                                   !- Ambient Divisions VMX
  512,                                    !- Ambient Divisions DMX
  256,                                    !- Ambient Supersamples
  0.001,                                  !- Limit Weight VMX
  0.001,                                  !- Limit Weight DMX
  500,                                    !- Klems Sampling Density
  146;                                    !- Sky Discretization Resolution

OS:SimulationControl,
  {2c487a4c-bac9-4ac5-b669-1e49d9da7c2b}, !- Handle
  ,                                       !- Do Zone Sizing Calculation
  ,                                       !- Do System Sizing Calculation
  ,                                       !- Do Plant Sizing Calculation
  No,                                     !- Run Simulation for Sizing Periods
  ,                                       !- Run Simulation for Weather File Run Periods
  0.04,                                   !- Loads Convergence Tolerance Value
  ,                                       !- Temperature Convergence Tolerance Value {deltaC}
  ,                                       !- Solar Distribution
  ,                                       !- Maximum Number of Warmup Days
  2;                                      !- Minimum Number of Warmup Days

OS:Sizing:Parameters,
  {dde5af6f-7923-4600-a28a-7556673a0266}, !- Handle
  1.25,                                   !- Heating Sizing Factor
  1.15;                                   !- Cooling Sizing Factor

OS:ProgramControl,
  {05027a99-f2b3-4aeb-afc6-1425fbb4371d}; !- Handle

OS:Timestep,
  {4ebc9f1e-4707-402e-9844-67eb1ffbd522}, !- Handle
  2;                                      !- Number of Timesteps per Hour

OS:OutputControl:ReportingTolerances,
  {65797aa2-06a9-45fe-b69d-bc6e060399d3}; !- Handle

OS:ConvergenceLimits,
  {9fc11aba-8822-4f3d-970c-46391ba4040d}; !- Handle

OS:ShadowCalculation,
  {ca758bea-4416-4626-9bba-3d8795c79bd6}, !- Handle
  7,                                      !- Calculation Frequency
  15000;                                  !- Maximum Figures in Shadow Overlap Calculations

OS:SurfaceConvectionAlgorithm:Inside,
  {aaabfc36-718a-4ab0-b622-f186ebb45230}, !- Handle
  TARP;                                   !- Algorithm

OS:SurfaceConvectionAlgorithm:Outside,
  {9a0a9f6f-4bbd-4b12-a121-9492a1fcd7d6}, !- Handle
  DOE-2;                                  !- Algorithm

OS:HeatBalanceAlgorithm,
  {9d93e563-e1e0-46d7-9e39-d1c8aceb7212}, !- Handle
  ConductionTransferFunction,             !- Algorithm
  200;                                    !- Surface Temperature Upper Limit {F}

OS:ZoneAirHeatBalanceAlgorithm,
  {8520d93e-310f-4696-9bcd-36228bfdd743}, !- Handle
  AnalyticalSolution;                     !- Algorithm

OS:ZoneAirContaminantBalance,
  {eb5fc3ae-fb22-4160-8fcb-3e3b22b000d3}; !- Handle

OS:ZoneCapacitanceMultiplier:ResearchSpecial,
  {4020ce4f-5a7a-4849-8028-8305d7b751b1}, !- Handle
  ,                                       !- Temperature Capacity Multiplier
  ,                                       !- Humidity Capacity Multiplier
  ;                                       !- Carbon Dioxide Capacity Multiplier

OS:RunPeriod,
  {28df894d-6af9-4fb8-8f56-df1753344aa3}, !- Handle
  Run Period 1,                           !- Name
  1,                                      !- Begin Month
  1,                                      !- Begin Day of Month
  12,                                     !- End Month
  31,                                     !- End Day of Month
  ,                                       !- Use Weather File Holidays and Special Days
  ,                                       !- Use Weather File Daylight Saving Period
  ,                                       !- Apply Weekend Holiday Rule
  ,                                       !- Use Weather File Rain Indicators
  ,                                       !- Use Weather File Snow Indicators
  ;                                       !- Number of Times Runperiod to be Repeated

OS:Building,
  {bf305633-c5a1-4881-9edf-ca5e1a8e1274}, !- Handle
  Building 1,                             !- Name
  ,                                       !- Building Sector Type
  ,                                       !- North Axis {deg}
  ,                                       !- Nominal Floor to Floor Height {m}
  ,                                       !- Space Type Name
  ,                                       !- Default Construction Set Name
  {7b4d83b4-3871-425c-9e49-9508f91da8f7}, !- Default Schedule Set Name
  ,                                       !- Standards Number of Stories
  ,                                       !- Standards Number of Above Ground Stories
  Office;                                 !- Standards Building Type

OS:LifeCycleCost:Parameters,
  {231cf8a0-f0e7-4251-a99f-11f0d464e661}, !- Handle
  FEMP,                                   !- Analysis Type
  ,                                       !- Discounting Convention
  ,                                       !- Inflation Approach
  ,                                       !- Real Discount Rate
  ,                                       !- Nominal Discount Rate
  ,                                       !- Inflation
  ,                                       !- Base Date Month
  ,                                       !- Base Date Year
  ,                                       !- Service Date Month
  ,                                       !- Service Date Year
  ,                                       !- Length of Study Period in Years
  ,                                       !- Tax Rate
  ,                                       !- Depreciation Method
  Yes;                                    !- Use NIST Fuel Escalation Rates

OS:Facility,
  {3ba8e45b-b833-44eb-a723-ea6c3946dc96}; !- Handle

OS:SpaceType,
  {c0ea963b-17ff-47eb-b5f8-f331519d8efe}, !- Handle
  Office|BlendA|DOE Ref Pre-1980|ASHRAE 169-2006-5A, !- Name
  {6f29adb0-ba10-40db-9735-ef25caa6a224}, !- Default Construction Set Name
  ,                                       !- Default Schedule Set Name
  {47cacfb2-56b1-4d86-a24a-ca1a00059bb9}, !- Group Rendering Name
  {ccd8cd44-bff0-44a2-8644-1e4e6efeac52}, !- Design Specification Outdoor Air Object Name
  Office,                                 !- Standards Building Type
  BlendA;                                 !- Standards Space Type

OS:Rendering:Color,
  {47cacfb2-56b1-4d86-a24a-ca1a00059bb9}, !- Handle
  Rendering Color 1,                      !- Name
  120,                                    !- Rendering Red Value
  230,                                    !- Rendering Green Value
  199;                                    !- Rendering Blue Value

OS:SpaceType,
  {dfb303f9-7448-46c3-80bf-2337cf89d464}, !- Handle
  Office|BlendB|DOE Ref Pre-1980|ASHRAE 169-2006-5A, !- Name
  {6f29adb0-ba10-40db-9735-ef25caa6a224}, !- Default Construction Set Name
  ,                                       !- Default Schedule Set Name
  {5fb48b7d-ba58-4dfa-870d-81507d996fec}, !- Group Rendering Name
  {f2c259f9-99ea-4d31-a1f9-0db11b573930}, !- Design Specification Outdoor Air Object Name
  Office,                                 !- Standards Building Type
  BlendB;                                 !- Standards Space Type

OS:Rendering:Color,
  {5fb48b7d-ba58-4dfa-870d-81507d996fec}, !- Handle
  Rendering Color 2,                      !- Name
  120,                                    !- Rendering Red Value
  149,                                    !- Rendering Green Value
  230;                                    !- Rendering Blue Value

OS:SpaceType,
  {31588dc4-0e17-4b07-94a4-601d6f45cf9a}, !- Handle
  Office|IT_Room|DOE Ref Pre-1980|ASHRAE 169-2006-5A, !- Name
  {6f29adb0-ba10-40db-9735-ef25caa6a224}, !- Default Construction Set Name
  {7fcd23f5-008c-418d-80b9-b1db2454c338}, !- Default Schedule Set Name
  {544679a4-5531-4877-ae33-dc9ae97d0a9b}, !- Group Rendering Name
  {dfea8be5-9ca7-469f-a46d-22398da9571a}, !- Design Specification Outdoor Air Object Name
  Office,                                 !- Standards Building Type
  IT_Room;                                !- Standards Space Type

OS:Rendering:Color,
  {544679a4-5531-4877-ae33-dc9ae97d0a9b}, !- Handle
  Rendering Color 3,                      !- Name
  41,                                     !- Rendering Red Value
  31,                                     !- Rendering Green Value
  169;                                    !- Rendering Blue Value

OS:SpaceType,
  {5a942d20-2465-4806-a7ed-8010f076e28f}, !- Handle
  Office|Elec/MechRoom|DOE Ref Pre-1980|ASHRAE 169-2006-5A, !- Name
  {6f29adb0-ba10-40db-9735-ef25caa6a224}, !- Default Construction Set Name
  {ef010e8e-568d-4426-b8a0-1c266f64a193}, !- Default Schedule Set Name
  {5f00f412-c871-4972-a69e-0d887b7e6d71}, !- Group Rendering Name
  {d7c70445-38a2-47d5-ba1f-cfe24f791f99}, !- Design Specification Outdoor Air Object Name
  Office,                                 !- Standards Building Type
  Elec/MechRoom;                          !- Standards Space Type

OS:Rendering:Color,
  {5f00f412-c871-4972-a69e-0d887b7e6d71}, !- Handle
  Rendering Color 4,                      !- Name
  41,                                     !- Rendering Red Value
  31,                                     !- Rendering Green Value
  169;                                    !- Rendering Blue Value

OS:SpaceType,
  {19b9b4ca-8db0-4639-a199-c037fcf1975e}, !- Handle
  Office|PrintRoom|DOE Ref Pre-1980|ASHRAE 169-2006-5A, !- Name
  {6f29adb0-ba10-40db-9735-ef25caa6a224}, !- Default Construction Set Name
  {aaeb856f-4fa8-4ef4-b077-52f2b7a7db21}, !- Default Schedule Set Name
  {3802747b-665c-4752-8813-26055ed320f4}, !- Group Rendering Name
  {edfeed52-db31-4f1d-88bb-5b57fc0a32a2}, !- Design Specification Outdoor Air Object Name
  Office,                                 !- Standards Building Type
  PrintRoom;                              !- Standards Space Type

OS:Rendering:Color,
  {3802747b-665c-4752-8813-26055ed320f4}, !- Handle
  Rendering Color 5,                      !- Name
  41,                                     !- Rendering Red Value
  31,                                     !- Rendering Green Value
  169;                                    !- Rendering Blue Value

OS:SpaceType,
  {705a0214-d0d8-401a-8006-3b0a004567d3}, !- Handle
  Office|Restroom|DOE Ref Pre-1980|ASHRAE 169-2006-5A, !- Name
  {6f29adb0-ba10-40db-9735-ef25caa6a224}, !- Default Construction Set Name
  {9ead8eb0-c571-4ed9-9697-b260fbfafff6}, !- Default Schedule Set Name
  {d32c7d36-32a1-48c7-b4a7-d363870b8bf6}, !- Group Rendering Name
  {63f99817-6ee7-4d9e-a3ce-2ed9d4066aca}, !- Design Specification Outdoor Air Object Name
  Office,                                 !- Standards Building Type
  Restroom;                               !- Standards Space Type

OS:Rendering:Color,
  {d32c7d36-32a1-48c7-b4a7-d363870b8bf6}, !- Handle
  Rendering Color 6,                      !- Name
  169,                                    !- Rendering Red Value
  169,                                    !- Rendering Green Value
  31;                                     !- Rendering Blue Value

OS:Schedule:Ruleset,
  {e3315a3c-e7a4-4f9b-97b9-7573d564914a}, !- Handle
  0800|1700|Office|default|hoo,           !- Name
  {53061ee1-ad69-40fe-b676-3406be23f19e}, !- Schedule Type Limits Name
  {788dc7b2-13f5-458e-aa79-cfcfb1b2db38}, !- Default Day Schedule Name
  {d729f794-3038-4c9e-973e-f8ba26ed16b9}, !- Summer Design Day Schedule Name
  {ee080468-6dd3-4282-8444-57bce74cfb9b}; !- Winter Design Day Schedule Name

OS:Schedule:Day,
  {788dc7b2-13f5-458e-aa79-cfcfb1b2db38}, !- Handle
  0800|1700|Office|default|hoo Schedule Week Day, !- Name
  {53061ee1-ad69-40fe-b676-3406be23f19e}, !- Schedule Type Limits Name
  ,                                       !- Interpolate to Timestep
  8,                                      !- Hour 1
  0,                                      !- Minute 1
  0,                                      !- Value Until Time 1
  17,                                     !- Hour 2
  0,                                      !- Minute 2
  1,                                      !- Value Until Time 2
  24,                                     !- Hour 3
  0,                                      !- Minute 3
  0;                                      !- Value Until Time 3

OS:Schedule:Day,
  {f3bebd0a-fdc4-4151-902c-754eefa2198e}, !- Handle
  Schedule Day 2,                         !- Name
  ,                                       !- Schedule Type Limits Name
  ,                                       !- Interpolate to Timestep
  24,                                     !- Hour 1
  0,                                      !- Minute 1
  0;                                      !- Value Until Time 1

OS:Schedule:Day,
  {ee080468-6dd3-4282-8444-57bce74cfb9b}, !- Handle
  0800|1700|Office|default|hoo Winter Design Day, !- Name
  {53061ee1-ad69-40fe-b676-3406be23f19e}, !- Schedule Type Limits Name
  ,                                       !- Interpolate to Timestep
  24,                                     !- Hour 1
  0,                                      !- Minute 1
  0;                                      !- Value Until Time 1

OS:Schedule:Day,
  {fed23dd9-df65-450d-a81e-f3404053380f}, !- Handle
  Schedule Day 3,                         !- Name
  ,                                       !- Schedule Type Limits Name
  ,                                       !- Interpolate to Timestep
  24,                                     !- Hour 1
  0,                                      !- Minute 1
  0;                                      !- Value Until Time 1

OS:Schedule:Day,
  {d729f794-3038-4c9e-973e-f8ba26ed16b9}, !- Handle
  0800|1700|Office|default|hoo Summer Design Day, !- Name
  {53061ee1-ad69-40fe-b676-3406be23f19e}, !- Schedule Type Limits Name
  ,                                       !- Interpolate to Timestep
  24,                                     !- Hour 1
  0,                                      !- Minute 1
  1;                                      !- Value Until Time 1

OS:DefaultScheduleSet,
  {7b4d83b4-3871-425c-9e49-9508f91da8f7}, !- Handle
  Building Hours of Operation,            !- Name
  {e3315a3c-e7a4-4f9b-97b9-7573d564914a}, !- Hours of Operation Schedule Name
  ,                                       !- Number of People Schedule Name
  ,                                       !- People Activity Level Schedule Name
  ,                                       !- Lighting Schedule Name
  ,                                       !- Electric Equipment Schedule Name
  ,                                       !- Gas Equipment Schedule Name
  ,                                       !- Hot Water Equipment Schedule Name
  ,                                       !- Infiltration Schedule Name
  ,                                       !- Steam Equipment Schedule Name
  ;                                       !- Other Equipment Schedule Name

OS:ScheduleTypeLimits,
  {53061ee1-ad69-40fe-b676-3406be23f19e}, !- Handle
  OnOff,                                  !- Name
  0,                                      !- Lower Limit Value {BasedOnField A4}
  1,                                      !- Upper Limit Value {BasedOnField A4}
  Discrete,                               !- Numeric Type
  Availability;                           !- Unit Type

OS:Schedule:Ruleset,
  {d7aa6158-a6a6-48b8-8441-735689fcb3e7}, !- Handle
  0800|1700|Office|default|occ,           !- Name
  {16e4bf2b-6adb-449f-ad46-df10d3445d5e}, !- Schedule Type Limits Name
  {761f6f5a-8341-42e7-b07a-bb7943448f7b}, !- Default Day Schedule Name
  {3f79bd27-63ab-4ca9-86dd-0daa1af86b40}, !- Summer Design Day Schedule Name
  {6f64d82e-aa78-48cc-8ea6-7444a83d2cdc}; !- Winter Design Day Schedule Name

OS:ScheduleTypeLimits,
  {16e4bf2b-6adb-449f-ad46-df10d3445d5e}, !- Handle
  Occupancy Schedule Type Limits,         !- Name
  0,                                      !- Lower Limit Value {BasedOnField A4}
  1,                                      !- Upper Limit Value {BasedOnField A4}
  Continuous,                             !- Numeric Type
  Dimensionless;                          !- Unit Type

OS:Schedule:Day,
  {761f6f5a-8341-42e7-b07a-bb7943448f7b}, !- Handle
  0800|1700|Office|default|occ |default,  !- Name
  {16e4bf2b-6adb-449f-ad46-df10d3445d5e}, !- Schedule Type Limits Name
  ,                                       !- Interpolate to Timestep
  5,                                      !- Hour 1
  0,                                      !- Minute 1
  0,                                      !- Value Until Time 1
  5,                                      !- Hour 2
  30,                                     !- Minute 2
  0.07,                                   !- Value Until Time 2
  6,                                      !- Hour 3
  0,                                      !- Minute 3
  0.13,                                   !- Value Until Time 3
  6,                                      !- Hour 4
  30,                                     !- Minute 4
  0.2,                                    !- Value Until Time 4
  7,                                      !- Hour 5
  0,                                      !- Minute 5
  0.27,                                   !- Value Until Time 5
  7,                                      !- Hour 6
  30,                                     !- Minute 6
  0.33,                                   !- Value Until Time 6
  21,                                     !- Hour 7
  0,                                      !- Minute 7
  0.4,                                    !- Value Until Time 7
  21,                                     !- Hour 8
  30,                                     !- Minute 8
  0.2,                                    !- Value Until Time 8
  24,                                     !- Hour 9
  0,                                      !- Minute 9
  0;                                      !- Value Until Time 9

OS:Schedule:Day,
  {3f79bd27-63ab-4ca9-86dd-0daa1af86b40}, !- Handle
  0800|1700|Office|default|occ Summer Design Day, !- Name
  {16e4bf2b-6adb-449f-ad46-df10d3445d5e}, !- Schedule Type Limits Name
  ,                                       !- Interpolate to Timestep
  5,                                      !- Hour 1
  0,                                      !- Minute 1
  0,                                      !- Value Until Time 1
  5,                                      !- Hour 2
  30,                                     !- Minute 2
  0.07,                                   !- Value Until Time 2
  6,                                      !- Hour 3
  0,                                      !- Minute 3
  0.13,                                   !- Value Until Time 3
  6,                                      !- Hour 4
  30,                                     !- Minute 4
  0.2,                                    !- Value Until Time 4
  7,                                      !- Hour 5
  0,                                      !- Minute 5
  0.27,                                   !- Value Until Time 5
  21,                                     !- Hour 6
  0,                                      !- Minute 6
  1,                                      !- Value Until Time 6
  21,                                     !- Hour 7
  30,                                     !- Minute 7
  0.2,                                    !- Value Until Time 7
  24,                                     !- Hour 8
  0,                                      !- Minute 8
  0;                                      !- Value Until Time 8

OS:Schedule:Day,
  {6f64d82e-aa78-48cc-8ea6-7444a83d2cdc}, !- Handle
  0800|1700|Office|default|occ Winter Design Day, !- Name
  {16e4bf2b-6adb-449f-ad46-df10d3445d5e}, !- Schedule Type Limits Name
  ,                                       !- Interpolate to Timestep
  24,                                     !- Hour 1
  0,                                      !- Minute 1
  0;                                      !- Value Until Time 1

OS:Schedule:Rule,
  {627da2cd-a796-46fd-a746-46302e060b19}, !- Handle
  0800|1700|Office|default|occ |1/1-12/31|Sun Rule, !- Name
  {d7aa6158-a6a6-48b8-8441-735689fcb3e7}, !- Schedule Ruleset Name
  0,                                      !- Rule Order
  {dc716252-ed1c-455b-80b9-f9c734ea4db8}, !- Day Schedule Name
  Yes,                                    !- Apply Sunday
  ,                                       !- Apply Monday
  ,                                       !- Apply Tuesday
  ,                                       !- Apply Wednesday
  ,                                       !- Apply Thursday
  ,                                       !- Apply Friday
  ,                                       !- Apply Saturday
  ,                                       !- Apply Holiday
  DateRange,                              !- Date Specification Type
  1,                                      !- Start Month
  1,                                      !- Start Day
  12,                                     !- End Month
  31;                                     !- End Day

OS:Schedule:Day,
  {dc716252-ed1c-455b-80b9-f9c734ea4db8}, !- Handle
  0800|1700|Office|default|occ |1/1-12/31|Sun, !- Name
  {16e4bf2b-6adb-449f-ad46-df10d3445d5e}, !- Schedule Type Limits Name
  ,                                       !- Interpolate to Timestep
  24,                                     !- Hour 1
  0,                                      !- Minute 1
  0;                                      !- Value Until Time 1

OS:Schedule:Rule,
  {5edece90-df73-4282-a89e-973637c1ace6}, !- Handle
  0800|1700|Office|default|occ |1/1-12/31|Sat Rule, !- Name
  {d7aa6158-a6a6-48b8-8441-735689fcb3e7}, !- Schedule Ruleset Name
  1,                                      !- Rule Order
  {ed9bb1a3-4ba9-4b59-a236-0a625f8d80c0}, !- Day Schedule Name
  ,                                       !- Apply Sunday
  ,                                       !- Apply Monday
  ,                                       !- Apply Tuesday
  ,                                       !- Apply Wednesday
  ,                                       !- Apply Thursday
  ,                                       !- Apply Friday
  Yes,                                    !- Apply Saturday
  ,                                       !- Apply Holiday
  DateRange,                              !- Date Specification Type
  1,                                      !- Start Month
  1,                                      !- Start Day
  12,                                     !- End Month
  31;                                     !- End Day

OS:Schedule:Day,
  {ed9bb1a3-4ba9-4b59-a236-0a625f8d80c0}, !- Handle
  0800|1700|Office|default|occ |1/1-12/31|Sat, !- Name
  {16e4bf2b-6adb-449f-ad46-df10d3445d5e}, !- Schedule Type Limits Name
  ,                                       !- Interpolate to Timestep
  5,                                      !- Hour 1
  0,                                      !- Minute 1
  0,                                      !- Value Until Time 1
  5,                                      !- Hour 2
  30,                                     !- Minute 2
  0.04,                                   !- Value Until Time 2
  6,                                      !- Hour 3
  0,                                      !- Minute 3
  0.08,                                   !- Value Until Time 3
  6,                                      !- Hour 4
  30,                                     !- Minute 4
  0.13,                                   !- Value Until Time 4
  7,                                      !- Hour 5
  0,                                      !- Minute 5
  0.17,                                   !- Value Until Time 5
  7,                                      !- Hour 6
  30,                                     !- Minute 6
  0.21,                                   !- Value Until Time 6
  14,                                     !- Hour 7
  0,                                      !- Minute 7
  0.25,                                   !- Value Until Time 7
  14,                                     !- Hour 8
  30,                                     !- Minute 8
  0.22,                                   !- Value Until Time 8
  15,                                     !- Hour 9
  0,                                      !- Minute 9
  0.19,                                   !- Value Until Time 9
  15,                                     !- Hour 10
  30,                                     !- Minute 10
  0.16,                                   !- Value Until Time 10
  16,                                     !- Hour 11
  0,                                      !- Minute 11
  0.13,                                   !- Value Until Time 11
  16,                                     !- Hour 12
  30,                                     !- Minute 12
  0.09,                                   !- Value Until Time 12
  17,                                     !- Hour 13
  0,                                      !- Minute 13
  0.06,                                   !- Value Until Time 13
  17,                                     !- Hour 14
  30,                                     !- Minute 14
  0.03,                                   !- Value Until Time 14
  24,                                     !- Hour 15
  0,                                      !- Minute 15
  0;                                      !- Value Until Time 15

OS:Schedule:Ruleset,
  {346a9a83-431c-420b-9370-324d696acc67}, !- Handle
  0800|1700|Office|default|activity,      !- Name
  {6972e8a6-eaef-4c08-82cf-d4bb6978ab89}, !- Schedule Type Limits Name
  {e4123e23-4a58-4a98-b388-727e96a5a278}, !- Default Day Schedule Name
  {b29f451d-c270-46bc-b1b3-1230cb28984f}, !- Summer Design Day Schedule Name
  {b4f16466-2220-49d1-b0b8-84b1fee4c053}; !- Winter Design Day Schedule Name

OS:ScheduleTypeLimits,
  {6972e8a6-eaef-4c08-82cf-d4bb6978ab89}, !- Handle
  People Activity Type Limits,            !- Name
  0,                                      !- Lower Limit Value {BasedOnField A4}
  ,                                       !- Upper Limit Value {BasedOnField A4}
  Continuous,                             !- Numeric Type
  ActivityLevel;                          !- Unit Type

OS:Schedule:Day,
  {e4123e23-4a58-4a98-b388-727e96a5a278}, !- Handle
  0800|1700|Office|default|activity |default, !- Name
  {6972e8a6-eaef-4c08-82cf-d4bb6978ab89}, !- Schedule Type Limits Name
  ,                                       !- Interpolate to Timestep
  24,                                     !- Hour 1
  0,                                      !- Minute 1
  120;                                    !- Value Until Time 1

OS:Schedule:Day,
  {b29f451d-c270-46bc-b1b3-1230cb28984f}, !- Handle
  0800|1700|Office|default|activity Summer Design Day, !- Name
  {6972e8a6-eaef-4c08-82cf-d4bb6978ab89}, !- Schedule Type Limits Name
  ,                                       !- Interpolate to Timestep
  24,                                     !- Hour 1
  0,                                      !- Minute 1
  120;                                    !- Value Until Time 1

OS:Schedule:Day,
  {b4f16466-2220-49d1-b0b8-84b1fee4c053}, !- Handle
  0800|1700|Office|default|activity Winter Design Day, !- Name
  {6972e8a6-eaef-4c08-82cf-d4bb6978ab89}, !- Schedule Type Limits Name
  ,                                       !- Interpolate to Timestep
  24,                                     !- Hour 1
  0,                                      !- Minute 1
  120;                                    !- Value Until Time 1

OS:Schedule:Ruleset,
  {a58881b6-9140-4015-bfd1-d8f3503b2ddb}, !- Handle
  0800|1700|Office|default|elec_equip,    !- Name
  {1b2efd02-e508-4c6c-a7d1-b9c8ce551f13}, !- Schedule Type Limits Name
  {ce00bd4d-a126-415e-a32d-d2952ce18b46}, !- Default Day Schedule Name
  {373a1fa7-48fa-49fd-941b-a5bb5301e4ff}, !- Summer Design Day Schedule Name
  {b744d4fd-c923-427a-b993-626be1742b81}; !- Winter Design Day Schedule Name

OS:ScheduleTypeLimits,
  {1b2efd02-e508-4c6c-a7d1-b9c8ce551f13}, !- Handle
  Equipment Schedule Type Limits,         !- Name
  0,                                      !- Lower Limit Value {BasedOnField A4}
  1,                                      !- Upper Limit Value {BasedOnField A4}
  Continuous,                             !- Numeric Type
  Dimensionless;                          !- Unit Type

OS:Schedule:Day,