
OS:Version,
  {2bcb2290-3f99-4977-b0a1-29a4c6940538}, !- Handle
  1.5.5;                                  !- Version Identifier

OS:ClimateZones,
  {135edfab-17e7-40db-a436-27d385a8cd6d}, !- Handle
  ,                                       !- Active Institution
  ,                                       !- Active Year
  ASHRAE,                                 !- Climate Zone Institution Name 1
  ANSI/ASHRAE Standard 169,               !- Climate Zone Document Name 1
  2006,                                   !- Climate Zone Document Year 1
  ,                                       !- Climate Zone Value 1
  CEC,                                    !- Climate Zone Institution Name 2
  California Climate Zone Descriptions,   !- Climate Zone Document Name 2
  1995,                                   !- Climate Zone Document Year 2
  ;                                       !- Climate Zone Value 2

OS:YearDescription,
  {513d8dda-86cb-442a-b01c-1f7f0e0ac70e}; !- Handle

OS:RadianceParameters,
  {270a96f1-3c86-4b75-a667-cdf22790e2c8}, !- Handle
  1,                                      !- Accumulated Rays per Record
  0,                                      !- Direct Threshold
  1,                                      !- Direct Certainty
  1,                                      !- Direct Jitter
  1,                                      !- Direct Pretest
  6,                                      !- Ambient Bounces VMX
  2,                                      !- Ambient Bounces DMX
  4050,                                   !- Ambient Divisions VMX
  512,                                    !- Ambient Divisions DMX
  256,                                    !- Ambient Supersamples
  0.001,                                  !- Limit Weight VMX
  0.001,                                  !- Limit Weight DMX
  500,                                    !- Klems Sampling Density
  146;                                    !- Sky Discretization Resolution

OS:SimulationControl,
  {2c487a4c-bac9-4ac5-b669-1e49d9da7c2b}, !- Handle
  ,                                       !- Do Zone Sizing Calculation
  ,                                       !- Do System Sizing Calculation
  ,                                       !- Do Plant Sizing Calculation
  No,                                     !- Run Simulation for Sizing Periods
  ,                                       !- Run Simulation for Weather File Run Periods
  0.04,                                   !- Loads Convergence Tolerance Value
  ,                                       !- Temperature Convergence Tolerance Value {deltaC}
  ,                                       !- Solar Distribution
  ,                                       !- Maximum Number of Warmup Days
  2;                                      !- Minimum Number of Warmup Days

OS:Sizing:Parameters,
  {dde5af6f-7923-4600-a28a-7556673a0266}, !- Handle
  1.25,                                   !- Heating Sizing Factor
  1.15;                                   !- Cooling Sizing Factor

OS:ProgramControl,
  {05027a99-f2b3-4aeb-afc6-1425fbb4371d}; !- Handle

OS:Timestep,
  {4ebc9f1e-4707-402e-9844-67eb1ffbd522}, !- Handle
  2;                                      !- Number of Timesteps per Hour

OS:OutputControl:ReportingTolerances,
  {65797aa2-06a9-45fe-b69d-bc6e060399d3}; !- Handle

OS:ConvergenceLimits,
  {9fc11aba-8822-4f3d-970c-46391ba4040d}; !- Handle

OS:ShadowCalculation,
  {ca758bea-4416-4626-9bba-3d8795c79bd6}, !- Handle
  7,                                      !- Calculation Frequency
  15000;                                  !- Maximum Figures in Shadow Overlap Calculations

OS:SurfaceConvectionAlgorithm:Inside,
  {aaabfc36-718a-4ab0-b622-f186ebb45230}, !- Handle
  TARP;                                   !- Algorithm

OS:SurfaceConvectionAlgorithm:Outside,
  {9a0a9f6f-4bbd-4b12-a121-9492a1fcd7d6}, !- Handle
  DOE-2;                                  !- Algorithm

OS:HeatBalanceAlgorithm,
  {9d93e563-e1e0-46d7-9e39-d1c8aceb7212}, !- Handle
  ConductionTransferFunction,             !- Algorithm
  200;                                    !- Surface Temperature Upper Limit {F}

OS:ZoneAirHeatBalanceAlgorithm,
  {8520d93e-310f-4696-9bcd-36228bfdd743}, !- Handle
  AnalyticalSolution;                     !- Algorithm

OS:ZoneAirContaminantBalance,
  {eb5fc3ae-fb22-4160-8fcb-3e3b22b000d3}; !- Handle

OS:ZoneCapacitanceMultiplier:ResearchSpecial,
  {4020ce4f-5a7a-4849-8028-8305d7b751b1}, !- Handle
  ,                                       !- Temperature Capacity Multiplier
  ,                                       !- Humidity Capacity Multiplier
  ;                                       !- Carbon Dioxide Capacity Multiplier

OS:RunPeriod,
  {28df894d-6af9-4fb8-8f56-df1753344aa3}, !- Handle
  Run Period 1,                           !- Name
  1,                                      !- Begin Month
  1,                                      !- Begin Day of Month
  12,                                     !- End Month
  31,                                     !- End Day of Month
  ,                                       !- Use Weather File Holidays and Special Days
  ,                                       !- Use Weather File Daylight Saving Period
  ,                                       !- Apply Weekend Holiday Rule
  ,                                       !- Use Weather File Rain Indicators
  ,                                       !- Use Weather File Snow Indicators
  ;                                       !- Number of Times Runperiod to be Repeated

OS:Building,
  {bf305633-c5a1-4881-9edf-ca5e1a8e1274}, !- Handle
  Building 1,                             !- Name
  ,                                       !- Building Sector Type
  ,                                       !- North Axis {deg}
  ,                                       !- Nominal Floor to Floor Height {m}
  ,                                       !- Space Type Name
  ,                                       !- Default Construction Set Name
  {ad66dd35-5841-4ec4-9251-281c06b4742c}, !- Default Schedule Set Name
  ,                                       !- Standards Number of Stories
  ,                                       !- Standards Number of Above Ground Stories
  Office;                                 !- Standards Building Type

OS:LifeCycleCost:Parameters,
  {231cf8a0-f0e7-4251-a99f-11f0d464e661}, !- Handle
  FEMP,                                   !- Analysis Type
  ,                                       !- Discounting Convention
  ,                                       !- Inflation Approach
  ,                                       !- Real Discount Rate
  ,                                       !- Nominal Discount Rate
  ,                                       !- Inflation
  ,                                       !- Base Date Month
  ,                                       !- Base Date Year
  ,                                       !- Service Date Month
  ,                                       !- Service Date Year
  ,                                       !- Length of Study Period in Years
  ,                                       !- Tax Rate
  ,                                       !- Depreciation Method
  Yes;                                    !- Use NIST Fuel Escalation Rates

OS:Facility,
  {3ba8e45b-b833-44eb-a723-ea6c3946dc96}; !- Handle

OS:SpaceType,
  {862c0673-3568-4e87-a499-2f67967c5a82}, !- Handle
  Office|BlendA|DOE Ref Pre-1980|ASHRAE 169-2006-5A, !- Name
  {328de982-6ab2-4cb6-bd65-6b8992a5f4f4}, !- Default Construction Set Name
  ,                                       !- Default Schedule Set Name
  {8b80118c-6a53-4b6f-a491-d610b38d5194}, !- Group Rendering Name
  {ee68323f-a0a0-42aa-9f7f-8e31e1584392}, !- Design Specification Outdoor Air Object Name
  Office,                                 !- Standards Building Type
  BlendA;                                 !- Standards Space Type

OS:Rendering:Color,
  {8b80118c-6a53-4b6f-a491-d610b38d5194}, !- Handle
  Rendering Color 1,                      !- Name
  120,                                    !- Rendering Red Value
  230,                                    !- Rendering Green Value
  199;                                    !- Rendering Blue Value

OS:SpaceType,
  {e883bf26-8108-4ed0-8f63-e7fbeb9029fe}, !- Handle
  Office|BlendB|DOE Ref Pre-1980|ASHRAE 169-2006-5A, !- Name
  {328de982-6ab2-4cb6-bd65-6b8992a5f4f4}, !- Default Construction Set Name
  ,                                       !- Default Schedule Set Name
  {4f0c20e2-4e62-4765-856d-4d119cd80751}, !- Group Rendering Name
  {f46d1c80-be6b-46ed-b54e-286a296ff83a}, !- Design Specification Outdoor Air Object Name
  Office,                                 !- Standards Building Type
  BlendB;                                 !- Standards Space Type

OS:Rendering:Color,
  {4f0c20e2-4e62-4765-856d-4d119cd80751}, !- Handle
  Rendering Color 2,                      !- Name
  120,                                    !- Rendering Red Value
  149,                                    !- Rendering Green Value
  230;                                    !- Rendering Blue Value

OS:SpaceType,
  {74ab6649-d1e4-4821-ac0c-c7028b48668f}, !- Handle
  Office|BlendC|DOE Ref Pre-1980|ASHRAE 169-2006-5A, !- Name
  {328de982-6ab2-4cb6-bd65-6b8992a5f4f4}, !- Default Construction Set Name
  ,                                       !- Default Schedule Set Name
  {e9b448df-a86c-48d1-9034-0456c2c736cb}, !- Group Rendering Name
  {239be41c-0a9b-4e62-b6fb-ca85594ce776}, !- Design Specification Outdoor Air Object Name
  Office,                                 !- Standards Building Type
  BlendC;                                 !- Standards Space Type

OS:Rendering:Color,
  {e9b448df-a86c-48d1-9034-0456c2c736cb}, !- Handle
  Rendering Color 3,                      !- Name
  41,                                     !- Rendering Red Value
  31,                                     !- Rendering Green Value
  169;                                    !- Rendering Blue Value

OS:SpaceType,
  {ac8cb088-2846-4377-ac19-1368128fc523}, !- Handle
  Office|Restroom|DOE Ref Pre-1980|ASHRAE 169-2006-5A, !- Name
  {328de982-6ab2-4cb6-bd65-6b8992a5f4f4}, !- Default Construction Set Name
  {a3ae60b6-b51c-4880-8138-e184e1bb7d67}, !- Default Schedule Set Name
  {53787c3e-4a3b-4819-9850-02bc1adae7a7}, !- Group Rendering Name
  {fff3c290-87af-4fbd-b95a-fab04996618f}, !- Design Specification Outdoor Air Object Name
  Office,                                 !- Standards Building Type
  Restroom;                               !- Standards Space Type

OS:Rendering:Color,
  {53787c3e-4a3b-4819-9850-02bc1adae7a7}, !- Handle
  Rendering Color 4,                      !- Name
  169,                                    !- Rendering Red Value
  169,                                    !- Rendering Green Value
  31;                                     !- Rendering Blue Value

OS:Schedule:Ruleset,
  {d4579230-66ce-4770-ba92-decda4cbb5e1}, !- Handle
  0800|1700|Office|default|hoo,           !- Name
  {46a42c23-e2e5-4088-a11b-021cc7d707d0}, !- Schedule Type Limits Name
  {6c05a42f-79c1-43a1-9518-c2d91730124c}, !- Default Day Schedule Name
  {de76d247-3461-427c-b008-675d7e4f7cf2}, !- Summer Design Day Schedule Name
  {ab5e71db-7fe0-4c5b-b9a4-8355ff64783a}; !- Winter Design Day Schedule Name

OS:Schedule:Day,
  {6c05a42f-79c1-43a1-9518-c2d91730124c}, !- Handle
  0800|1700|Office|default|hoo Schedule Week Day, !- Name
  {46a42c23-e2e5-4088-a11b-021cc7d707d0}, !- Schedule Type Limits Name
  ,                                       !- Interpolate to Timestep
  8,                                      !- Hour 1
  0,                                      !- Minute 1
  0,                                      !- Value Until Time 1
  17,                                     !- Hour 2
  0,                                      !- Minute 2
  1,                                      !- Value Until Time 2
  24,                                     !- Hour 3
  0,                                      !- Minute 3
  0;                                      !- Value Until Time 3

OS:Schedule:Day,
  {676d119d-5e07-44e7-888d-1bbefc9fd6f1}, !- Handle
  Schedule Day 2,                         !- Name
  ,                                       !- Schedule Type Limits Name
  ,                                       !- Interpolate to Timestep
  24,                                     !- Hour 1
  0,                                      !- Minute 1
  0;                                      !- Value Until Time 1

OS:Schedule:Day,
  {ab5e71db-7fe0-4c5b-b9a4-8355ff64783a}, !- Handle
  0800|1700|Office|default|hoo Winter Design Day, !- Name
  {46a42c23-e2e5-4088-a11b-021cc7d707d0}, !- Schedule Type Limits Name
  ,                                       !- Interpolate to Timestep
  24,                                     !- Hour 1
  0,                                      !- Minute 1
  0;                                      !- Value Until Time 1

OS:Schedule:Day,
  {26987643-f16c-463f-a879-ccfe874d7ffa}, !- Handle
  Schedule Day 3,                         !- Name
  ,                                       !- Schedule Type Limits Name
  ,                                       !- Interpolate to Timestep
  24,                                     !- Hour 1
  0,                                      !- Minute 1
  0;                                      !- Value Until Time 1

OS:Schedule:Day,
  {de76d247-3461-427c-b008-675d7e4f7cf2}, !- Handle
  0800|1700|Office|default|hoo Summer Design Day, !- Name
  {46a42c23-e2e5-4088-a11b-021cc7d707d0}, !- Schedule Type Limits Name
  ,                                       !- Interpolate to Timestep
  24,                                     !- Hour 1
  0,                                      !- Minute 1
  1;                                      !- Value Until Time 1

OS:DefaultScheduleSet,
  {ad66dd35-5841-4ec4-9251-281c06b4742c}, !- Handle
  Building Hours of Operation,            !- Name
  {d4579230-66ce-4770-ba92-decda4cbb5e1}, !- Hours of Operation Schedule Name
  ,                                       !- Number of People Schedule Name
  ,                                       !- People Activity Level Schedule Name
  ,                                       !- Lighting Schedule Name
  ,                                       !- Electric Equipment Schedule Name
  ,                                       !- Gas Equipment Schedule Name
  ,                                       !- Hot Water Equipment Schedule Name
  ,                                       !- Infiltration Schedule Name
  ,                                       !- Steam Equipment Schedule Name
  ;                                       !- Other Equipment Schedule Name

OS:ScheduleTypeLimits,
  {46a42c23-e2e5-4088-a11b-021cc7d707d0}, !- Handle
  OnOff,                                  !- Name
  0,                                      !- Lower Limit Value {BasedOnField A4}
  1,                                      !- Upper Limit Value {BasedOnField A4}
  Discrete,                               !- Numeric Type
  Availability;                           !- Unit Type

OS:Schedule:Ruleset,
  {439dcd20-8613-48a1-9ea8-6a2994cd076c}, !- Handle
  0800|1700|Office|default|occ,           !- Name
  {187eab70-497d-4684-a3ee-7f8ecb7205d4}, !- Schedule Type Limits Name
  {e9b11519-e9aa-43c1-87d1-41e92acb9610}, !- Default Day Schedule Name
  {1a5b1894-092a-4400-86b8-042402f0b16d}, !- Summer Design Day Schedule Name
  {f79dcfc2-fd78-4d36-8974-24fee630fdcb}; !- Winter Design Day Schedule Name

OS:ScheduleTypeLimits,
  {187eab70-497d-4684-a3ee-7f8ecb7205d4}, !- Handle
  Occupancy Schedule Type Limits,         !- Name
  0,                                      !- Lower Limit Value {BasedOnField A4}
  1,                                      !- Upper Limit Value {BasedOnField A4}
  Continuous,                             !- Numeric Type
  Dimensionless;                          !- Unit Type

OS:Schedule:Day,
  {e9b11519-e9aa-43c1-87d1-41e92acb9610}, !- Handle
  0800|1700|Office|default|occ |default,  !- Name
  {187eab70-497d-4684-a3ee-7f8ecb7205d4}, !- Schedule Type Limits Name
  ,                                       !- Interpolate to Timestep
  5,                                      !- Hour 1
  0,                                      !- Minute 1
  0,                                      !- Value Until Time 1
  5,                                      !- Hour 2
  30,                                     !- Minute 2
  0.07,                                   !- Value Until Time 2
  6,                                      !- Hour 3
  0,                                      !- Minute 3
  0.13,                                   !- Value Until Time 3
  6,                                      !- Hour 4
  30,                                     !- Minute 4
  0.2,                                    !- Value Until Time 4
  7,                                      !- Hour 5
  0,                                      !- Minute 5
  0.27,                                   !- Value Until Time 5
  7,                                      !- Hour 6
  30,                                     !- Minute 6
  0.33,                                   !- Value Until Time 6
  21,                                     !- Hour 7
  0,                                      !- Minute 7
  0.4,                                    !- Value Until Time 7
  21,                                     !- Hour 8
  30,                                     !- Minute 8
  0.2,                                    !- Value Until Time 8
  24,                                     !- Hour 9
  0,                                      !- Minute 9
  0;                                      !- Value Until Time 9

OS:Schedule:Day,
  {1a5b1894-092a-4400-86b8-042402f0b16d}, !- Handle
  0800|1700|Office|default|occ Summer Design Day, !- Name
  {187eab70-497d-4684-a3ee-7f8ecb7205d4}, !- Schedule Type Limits Name
  ,                                       !- Interpolate to Timestep
  5,                                      !- Hour 1
  0,                                      !- Minute 1
  0,                                      !- Value Until Time 1
  5,                                      !- Hour 2
  30,                                     !- Minute 2
  0.07,                                   !- Value Until Time 2
  6,                                      !- Hour 3
  0,                                      !- Minute 3
  0.13,                                   !- Value Until Time 3
  6,                                      !- Hour 4
  30,                                     !- Minute 4
  0.2,                                    !- Value Until Time 4
  7,                                      !- Hour 5
  0,                                      !- Minute 5
  0.27,                                   !- Value Until Time 5
  21,                                     !- Hour 6
  0,                                      !- Minute 6
  1,                                      !- Value Until Time 6
  21,                                     !- Hour 7
  30,                                     !- Minute 7
  0.2,                                    !- Value Until Time 7
  24,                                     !- Hour 8
  0,                                      !- Minute 8
  0;                                      !- Value Until Time 8

OS:Schedule:Day,
  {f79dcfc2-fd78-4d36-8974-24fee630fdcb}, !- Handle
  0800|1700|Office|default|occ Winter Design Day, !- Name
  {187eab70-497d-4684-a3ee-7f8ecb7205d4}, !- Schedule Type Limits Name
  ,                                       !- Interpolate to Timestep
  24,                                     !- Hour 1
  0,                                      !- Minute 1
  0;                                      !- Value Until Time 1

OS:Schedule:Rule,
  {8e268d38-8f87-452b-8290-227d444e9ef7}, !- Handle
  0800|1700|Office|default|occ |1/1-12/31|Sun Rule, !- Name
  {439dcd20-8613-48a1-9ea8-6a2994cd076c}, !- Schedule Ruleset Name
  0,                                      !- Rule Order
  {76fef1be-3809-4493-9488-93d132148d25}, !- Day Schedule Name
  Yes,                                    !- Apply Sunday
  ,                                       !- Apply Monday
  ,                                       !- Apply Tuesday
  ,                                       !- Apply Wednesday
  ,                                       !- Apply Thursday
  ,                                       !- Apply Friday
  ,                                       !- Apply Saturday
  ,                                       !- Apply Holiday
  DateRange,                              !- Date Specification Type
  1,                                      !- Start Month
  1,                                      !- Start Day
  12,                                     !- End Month
  31;                                     !- End Day

OS:Schedule:Day,
  {76fef1be-3809-4493-9488-93d132148d25}, !- Handle
  0800|1700|Office|default|occ |1/1-12/31|Sun, !- Name
  {187eab70-497d-4684-a3ee-7f8ecb7205d4}, !- Schedule Type Limits Name
  ,                                       !- Interpolate to Timestep
  24,                                     !- Hour 1
  0,                                      !- Minute 1
  0;                                      !- Value Until Time 1

OS:Schedule:Rule,
  {29a02de7-31bf-4c1d-8c85-bf09745a9e77}, !- Handle
  0800|1700|Office|default|occ |1/1-12/31|Sat Rule, !- Name
  {439dcd20-8613-48a1-9ea8-6a2994cd076c}, !- Schedule Ruleset Name
  1,                                      !- Rule Order
  {62180a54-76c9-4725-ae71-21b7121a142a}, !- Day Schedule Name
  ,                                       !- Apply Sunday
  ,                                       !- Apply Monday
  ,                                       !- Apply Tuesday
  ,                                       !- Apply Wednesday
  ,                                       !- Apply Thursday
  ,                                       !- Apply Friday
  Yes,                                    !- Apply Saturday
  ,                                       !- Apply Holiday
  DateRange,                              !- Date Specification Type
  1,                                      !- Start Month
  1,                                      !- Start Day
  12,                                     !- End Month
  31;                                     !- End Day

OS:Schedule:Day,
  {62180a54-76c9-4725-ae71-21b7121a142a}, !- Handle
  0800|1700|Office|default|occ |1/1-12/31|Sat, !- Name
  {187eab70-497d-4684-a3ee-7f8ecb7205d4}, !- Schedule Type Limits Name
  ,                                       !- Interpolate to Timestep
  5,                                      !- Hour 1
  0,                                      !- Minute 1
  0,                                      !- Value Until Time 1
  5,                                      !- Hour 2
  30,                                     !- Minute 2
  0.04,                                   !- Value Until Time 2
  6,                                      !- Hour 3
  0,                                      !- Minute 3
  0.08,                                   !- Value Until Time 3
  6,                                      !- Hour 4
  30,                                     !- Minute 4
  0.13,                                   !- Value Until Time 4
  7,                                      !- Hour 5
  0,                                      !- Minute 5
  0.17,                                   !- Value Until Time 5
  7,                                      !- Hour 6
  30,                                     !- Minute 6
  0.21,                                   !- Value Until Time 6
  14,                                     !- Hour 7
  0,                                      !- Minute 7
  0.25,                                   !- Value Until Time 7
  14,                                     !- Hour 8
  30,                                     !- Minute 8
  0.22,                                   !- Value Until Time 8
  15,                                     !- Hour 9
  0,                                      !- Minute 9
  0.19,                                   !- Value Until Time 9
  15,                                     !- Hour 10
  30,                                     !- Minute 10
  0.16,                                   !- Value Until Time 10
  16,                                     !- Hour 11
  0,                                      !- Minute 11
  0.13,                                   !- Value Until Time 11
  16,                                     !- Hour 12
  30,                                     !- Minute 12
  0.09,                                   !- Value Until Time 12
  17,                                     !- Hour 13
  0,                                      !- Minute 13
  0.06,                                   !- Value Until Time 13
  17,                                     !- Hour 14
  30,                                     !- Minute 14
  0.03,                                   !- Value Until Time 14
  24,                                     !- Hour 15
  0,                                      !- Minute 15
  0;                                      !- Value Until Time 15

OS:Schedule:Ruleset,
  {7aea243c-8572-45e2-8bba-2e77d1221268}, !- Handle
  0800|1700|Office|default|activity,      !- Name
  {ea03d942-8361-48f5-a519-c1974209116f}, !- Schedule Type Limits Name
  {dbc7c7cf-f85d-4422-9bfa-6e1ec0fa120e}, !- Default Day Schedule Name
  {ed190235-9470-49fb-a961-64482a45ddeb}, !- Summer Design Day Schedule Name
  {d701125e-7b06-4646-b0ab-df9d427b083c}; !- Winter Design Day Schedule Name

OS:ScheduleTypeLimits,
  {ea03d942-8361-48f5-a519-c1974209116f}, !- Handle
  People Activity Type Limits,            !- Name
  0,                                      !- Lower Limit Value {BasedOnField A4}
  ,                                       !- Upper Limit Value {BasedOnField A4}
  Continuous,                             !- Numeric Type
  ActivityLevel;                          !- Unit Type

OS:Schedule:Day,
  {dbc7c7cf-f85d-4422-9bfa-6e1ec0fa120e}, !- Handle
  0800|1700|Office|default|activity |default, !- Name
  {ea03d942-8361-48f5-a519-c1974209116f}, !- Schedule Type Limits Name
  ,                                       !- Interpolate to Timestep
  24,                                     !- Hour 1
  0,                                      !- Minute 1
  120;                                    !- Value Until Time 1

OS:Schedule:Day,
  {ed190235-9470-49fb-a961-64482a45ddeb}, !- Handle
  0800|1700|Office|default|activity Summer Design Day, !- Name
  {ea03d942-8361-48f5-a519-c1974209116f}, !- Schedule Type Limits Name
  ,                                       !- Interpolate to Timestep
  24,                                     !- Hour 1
  0,                                      !- Minute 1
  120;                                    !- Value Until Time 1

OS:Schedule:Day,
  {d701125e-7b06-4646-b0ab-df9d427b083c}, !- Handle
  0800|1700|Office|default|activity Winter Design Day, !- Name
  {ea03d942-8361-48f5-a519-c1974209116f}, !- Schedule Type Limits Name
  ,                                       !- Interpolate to Timestep
  24,                                     !- Hour 1
  0,                                      !- Minute 1
  120;                                    !- Value Until Time 1

OS:Schedule:Ruleset,
  {678867ff-c58f-4d15-be06-edba399a0a80}, !- Handle
  0800|1700|Office|default|elec_equip,    !- Name
  {ad5f11ca-b30e-4b9c-ba7a-38f853ef12e6}, !- Schedule Type Limits Name
  {f3ebac74-3f36-403f-b22b-7d4953953924}, !- Default Day Schedule Name
  {984e1c34-3ebd-4038-ba9b-431b4524e328}, !- Summer Design Day Schedule Name
  {7b8daa94-3732-4ef0-8f32-a204f1b1290b}; !- Winter Design Day Schedule Name

OS:ScheduleTypeLimits,
  {ad5f11ca-b30e-4b9c-ba7a-38f853ef12e6}, !- Handle
  Equipment Schedule Type Limits,         !- Name
  0,                                      !- Lower Limit Value {BasedOnField A4}
  1,                                      !- Upper Limit Value {BasedOnField A4}
  Continuous,                             !- Numeric Type
  Dimensionless;                          !- Unit Type

OS:Schedule:Day,
  {f3ebac74-3f36-403f-b22b-7d4953953924}, !- Handle
  0800|1700|Office|default|elec_equip |default, !- Name
  {ad5f11ca-b30e-4b9c-ba7a-38f853ef12e6}, !- Schedule Type Limits Name
  ,                                       !- Interpolate to Timestep
  8,                                      !- Hour 1
  0,                                      !- Minute 1
  0.4,                                    !- Value Until Time 1
  12,                                     !- Hour 2
  0,                                      !- Minute 2
  0.9,                                    !- Value Until Time 2
  13,                                     !- Hour 3
  0,                                      !- Minute 3
  0.8,                                    !- Value Until Time 3
  16,                                     !- Hour 4
  0,                                      !- Minute 4
  0.9,                                    !- Value Until Time 4
  16,                                     !- Hour 5
  30,                                     !- Minute 5
  0.8,                                    !- Value Until Time 5
  17,                                     !- Hour 6
  0,                                      !- Minute 6
  0.7,                                    !- Value Until Time 6
  17,                                     !- Hour 7
  30,                                     !- Minute 7
  0.6,                                    !- Value Until Time 7
  18,                                     !- Hour 8
  0,                                      !- Minute 8
  0.5,                                    !- Value Until Time 8
  18,                                     !- Hour 9
  30,                                     !- Minute 9
  0.49,                                   !- Value Until Time 9