
OS:Version,
  {a31dc8da-cae9-4d5e-ba95-77d684ae7f82}, !- Handle
  1.6.0;                                  !- Version Identifier

OS:ClimateZones,
  {135edfab-17e7-40db-a436-27d385a8cd6d}, !- Handle
  ,                                       !- Active Institution
  ,                                       !- Active Year
  ASHRAE,                                 !- Climate Zone Institution Name 1
  ANSI/ASHRAE Standard 169,               !- Climate Zone Document Name 1
  2006,                                   !- Climate Zone Document Year 1
  ,                                       !- Climate Zone Value 1
  CEC,                                    !- Climate Zone Institution Name 2
  California Climate Zone Descriptions,   !- Climate Zone Document Name 2
  1995,                                   !- Climate Zone Document Year 2
  ;                                       !- Climate Zone Value 2

OS:YearDescription,
  {513d8dda-86cb-442a-b01c-1f7f0e0ac70e}; !- Handle

OS:RadianceParameters,
  {270a96f1-3c86-4b75-a667-cdf22790e2c8}, !- Handle
  1,                                      !- Accumulated Rays per Record
  0,                                      !- Direct Threshold
  1,                                      !- Direct Certainty
  1,                                      !- Direct Jitter
  1,                                      !- Direct Pretest
  6,                                      !- Ambient Bounces VMX
  2,                                      !- Ambient Bounces DMX
  4050,                                   !- Ambient Divisions VMX
  512,                                    !- Ambient Divisions DMX
  256,                                    !- Ambient Supersamples
  0.001,                                  !- Limit Weight VMX
  0.001,                                  !- Limit Weight DMX
  500,                                    !- Klems Sampling Density
  146;                                    !- Sky Discretization Resolution

OS:SimulationControl,
  {2c487a4c-bac9-4ac5-b669-1e49d9da7c2b}, !- Handle
  ,                                       !- Do Zone Sizing Calculation
  ,                                       !- Do System Sizing Calculation
  ,                                       !- Do Plant Sizing Calculation
  No,                                     !- Run Simulation for Sizing Periods
  ,                                       !- Run Simulation for Weather File Run Periods
  0.04,                                   !- Loads Convergence Tolerance Value
  ,                                       !- Temperature Convergence Tolerance Value {deltaC}
  ,                                       !- Solar Distribution
  ,                                       !- Maximum Number of Warmup Days
  2;                                      !- Minimum Number of Warmup Days

OS:Sizing:Parameters,
  {dde5af6f-7923-4600-a28a-7556673a0266}, !- Handle
  1.25,                                   !- Heating Sizing Factor
  1.15;                                   !- Cooling Sizing Factor

OS:ProgramControl,
  {05027a99-f2b3-4aeb-afc6-1425fbb4371d}; !- Handle

OS:Timestep,
  {4ebc9f1e-4707-402e-9844-67eb1ffbd522}, !- Handle
  2;                                      !- Number of Timesteps per Hour

OS:OutputControl:ReportingTolerances,
  {65797aa2-06a9-45fe-b69d-bc6e060399d3}; !- Handle

OS:ConvergenceLimits,
  {9fc11aba-8822-4f3d-970c-46391ba4040d}; !- Handle

OS:ShadowCalculation,
  {ca758bea-4416-4626-9bba-3d8795c79bd6}, !- Handle
  7,                                      !- Calculation Frequency
  15000;                                  !- Maximum Figures in Shadow Overlap Calculations

OS:SurfaceConvectionAlgorithm:Inside,
  {aaabfc36-718a-4ab0-b622-f186ebb45230}, !- Handle
  TARP;                                   !- Algorithm

OS:SurfaceConvectionAlgorithm:Outside,
  {9a0a9f6f-4bbd-4b12-a121-9492a1fcd7d6}, !- Handle
  DOE-2;                                  !- Algorithm

OS:HeatBalanceAlgorithm,
  {9d93e563-e1e0-46d7-9e39-d1c8aceb7212}, !- Handle
  ConductionTransferFunction,             !- Algorithm
  200;                                    !- Surface Temperature Upper Limit {F}

OS:ZoneAirHeatBalanceAlgorithm,
  {8520d93e-310f-4696-9bcd-36228bfdd743}, !- Handle
  AnalyticalSolution;                     !- Algorithm

OS:ZoneAirContaminantBalance,
  {eb5fc3ae-fb22-4160-8fcb-3e3b22b000d3}; !- Handle

OS:ZoneCapacitanceMultiplier:ResearchSpecial,
  {4020ce4f-5a7a-4849-8028-8305d7b751b1}, !- Handle
  ,                                       !- Temperature Capacity Multiplier
  ,                                       !- Humidity Capacity Multiplier
  ;                                       !- Carbon Dioxide Capacity Multiplier

OS:RunPeriod,
  {28df894d-6af9-4fb8-8f56-df1753344aa3}, !- Handle
  Run Period 1,                           !- Name
  1,                                      !- Begin Month
  1,                                      !- Begin Day of Month
  12,                                     !- End Month
  31,                                     !- End Day of Month
  ,                                       !- Use Weather File Holidays and Special Days
  ,                                       !- Use Weather File Daylight Saving Period
  ,                                       !- Apply Weekend Holiday Rule
  ,                                       !- Use Weather File Rain Indicators
  ,                                       !- Use Weather File Snow Indicators
  ;                                       !- Number of Times Runperiod to be Repeated

OS:Building,
  {bf305633-c5a1-4881-9edf-ca5e1a8e1274}, !- Handle
  Building 1,                             !- Name
  ,                                       !- Building Sector Type
  ,                                       !- North Axis {deg}
  ,                                       !- Nominal Floor to Floor Height {m}
  ,                                       !- Space Type Name
  ,                                       !- Default Construction Set Name
  {a9a43701-a525-4289-afd4-d3222dd34903}, !- Default Schedule Set Name
  ,                                       !- Standards Number of Stories
  ,                                       !- Standards Number of Above Ground Stories
  Office;                                 !- Standards Building Type

OS:LifeCycleCost:Parameters,
  {231cf8a0-f0e7-4251-a99f-11f0d464e661}, !- Handle
  FEMP,                                   !- Analysis Type
  ,                                       !- Discounting Convention
  ,                                       !- Inflation Approach
  ,                                       !- Real Discount Rate
  ,                                       !- Nominal Discount Rate
  ,                                       !- Inflation
  ,                                       !- Base Date Month
  ,                                       !- Base Date Year
  ,                                       !- Service Date Month
  ,                                       !- Service Date Year
  ,                                       !- Length of Study Period in Years
  ,                                       !- Tax Rate
  ,                                       !- Depreciation Method
  Yes;                                    !- Use NIST Fuel Escalation Rates

OS:Facility,
  {3ba8e45b-b833-44eb-a723-ea6c3946dc96}; !- Handle

OS:SpaceType,
  {deb8050f-2d82-4dcf-8b05-987cb146ed7d}, !- Handle
  Office|BlendA|DOE Ref 2004|ASHRAE 169-2006-5A, !- Name
  {b957796b-bebb-4767-83cd-23d1ebaa01fe}, !- Default Construction Set Name
  ,                                       !- Default Schedule Set Name
  {3dbd375a-f3cb-4272-999b-fdc4282462f5}, !- Group Rendering Name
  {ef6c1697-829b-46d5-b168-3403c24e2e81}, !- Design Specification Outdoor Air Object Name
  Office,                                 !- Standards Building Type
  BlendA;                                 !- Standards Space Type

OS:Rendering:Color,
  {3dbd375a-f3cb-4272-999b-fdc4282462f5}, !- Handle
  Rendering Color 1,                      !- Name
  120,                                    !- Rendering Red Value
  230,                                    !- Rendering Green Value
  199;                                    !- Rendering Blue Value

OS:SpaceType,
  {7ff47fbb-43b2-4e1f-a92a-a1f324a23edf}, !- Handle
  Office|BlendB|DOE Ref 2004|ASHRAE 169-2006-5A, !- Name
  {b957796b-bebb-4767-83cd-23d1ebaa01fe}, !- Default Construction Set Name
  ,                                       !- Default Schedule Set Name
  {5410742b-c3e9-447c-8951-5ce365913af6}, !- Group Rendering Name
  {1a81c235-7c05-4385-b031-833393526948}, !- Design Specification Outdoor Air Object Name
  Office,                                 !- Standards Building Type
  BlendB;                                 !- Standards Space Type

OS:Rendering:Color,
  {5410742b-c3e9-447c-8951-5ce365913af6}, !- Handle
  Rendering Color 2,                      !- Name
  120,                                    !- Rendering Red Value
  149,                                    !- Rendering Green Value
  230;                                    !- Rendering Blue Value

OS:SpaceType,
  {d8a7f597-abc4-4397-89b5-81aa1bad63aa}, !- Handle
  Office|ITRoom|DOE Ref 2004|ASHRAE 169-2006-5A, !- Name
  {b957796b-bebb-4767-83cd-23d1ebaa01fe}, !- Default Construction Set Name
  {7c359167-a26a-4387-9c38-1698d2bf883a}, !- Default Schedule Set Name
  {95175b82-2f8d-45df-9686-aedcff747628}, !- Group Rendering Name
  {7a7503fc-72d6-4771-8313-ebe06c91120f}, !- Design Specification Outdoor Air Object Name
  Office,                                 !- Standards Building Type
  ITRoom;                                 !- Standards Space Type

OS:Rendering:Color,
  {95175b82-2f8d-45df-9686-aedcff747628}, !- Handle
  Rendering Color 3,                      !- Name
  41,                                     !- Rendering Red Value
  31,                                     !- Rendering Green Value
  169;                                    !- Rendering Blue Value

OS:SpaceType,
  {b63751d0-fcf5-42be-9666-0c98e7890af8}, !- Handle
  Office|ElecMechRoom|DOE Ref 2004|ASHRAE 169-2006-5A, !- Name
  {b957796b-bebb-4767-83cd-23d1ebaa01fe}, !- Default Construction Set Name
  {9b7332c9-0aba-4926-ac05-948bc058cfc0}, !- Default Schedule Set Name
  {3ee15a72-3c2b-4609-9b39-2afba9b4eff3}, !- Group Rendering Name
  {e696ca9a-bd79-4cc5-93d2-2e7f0dca527e}, !- Design Specification Outdoor Air Object Name
  Office,                                 !- Standards Building Type
  ElecMechRoom;                           !- Standards Space Type

OS:Rendering:Color,
  {3ee15a72-3c2b-4609-9b39-2afba9b4eff3}, !- Handle
  Rendering Color 4,                      !- Name
  41,                                     !- Rendering Red Value
  31,                                     !- Rendering Green Value
  169;                                    !- Rendering Blue Value

OS:SpaceType,
  {ddbad226-51e6-4a0b-a54c-49f9d6fb3942}, !- Handle
  Office|PrintRoom|DOE Ref 2004|ASHRAE 169-2006-5A, !- Name
  {b957796b-bebb-4767-83cd-23d1ebaa01fe}, !- Default Construction Set Name
  {9c13139e-3a61-43a7-8bec-06e5ae11365e}, !- Default Schedule Set Name
  {a2bb074c-92cc-4e7b-bfe0-91b33bbd5c75}, !- Group Rendering Name
  {fd1267e6-bde5-464e-a715-f78cc120eb4f}, !- Design Specification Outdoor Air Object Name
  Office,                                 !- Standards Building Type
  PrintRoom;                              !- Standards Space Type

OS:Rendering:Color,
  {a2bb074c-92cc-4e7b-bfe0-91b33bbd5c75}, !- Handle
  Rendering Color 5,                      !- Name
  41,                                     !- Rendering Red Value
  31,                                     !- Rendering Green Value
  169;                                    !- Rendering Blue Value

OS:SpaceType,
  {9ad78e27-8962-4a2f-b644-5a1b13ec851a}, !- Handle
  Office|Restroom|DOE Ref 2004|ASHRAE 169-2006-5A, !- Name
  {b957796b-bebb-4767-83cd-23d1ebaa01fe}, !- Default Construction Set Name
  {dbf15415-dd9c-4a90-b7b9-1f9c31c1cb4f}, !- Default Schedule Set Name
  {2406b9f3-2022-4495-9e21-f8f2d9280a91}, !- Group Rendering Name
  {3e31b9da-5a4c-4098-b1b4-cebf250e01b2}, !- Design Specification Outdoor Air Object Name
  Office,                                 !- Standards Building Type
  Restroom;                               !- Standards Space Type

OS:Rendering:Color,
  {2406b9f3-2022-4495-9e21-f8f2d9280a91}, !- Handle
  Rendering Color 6,                      !- Name
  169,                                    !- Rendering Red Value
  169,                                    !- Rendering Green Value
  31;                                     !- Rendering Blue Value

OS:Schedule:Ruleset,
  {99c0610b-b360-4c2b-9c56-5684d79a23a3}, !- Handle
  0800|1700|Office|default|hoo,           !- Name
  {e33ccfc7-f96e-4232-9358-33c9f836323c}, !- Schedule Type Limits Name
  {63606872-96a9-4c50-a7d3-8d07cc31d09e}, !- Default Day Schedule Name
  {7d1b8427-f0bf-4ecf-a101-ca7534f2d3c2}, !- Summer Design Day Schedule Name
  {d0d7397e-8ea8-4b77-9780-684e856438c0}; !- Winter Design Day Schedule Name

OS:Schedule:Day,
  {63606872-96a9-4c50-a7d3-8d07cc31d09e}, !- Handle
  0800|1700|Office|default|hoo Schedule Week Day, !- Name
  {e33ccfc7-f96e-4232-9358-33c9f836323c}, !- Schedule Type Limits Name
  ,                                       !- Interpolate to Timestep
  8,                                      !- Hour 1
  0,                                      !- Minute 1
  0,                                      !- Value Until Time 1
  17,                                     !- Hour 2
  0,                                      !- Minute 2
  1,                                      !- Value Until Time 2
  24,                                     !- Hour 3
  0,                                      !- Minute 3
  0;                                      !- Value Until Time 3

OS:Schedule:Day,
  {ae05ea21-2fe5-40d6-bcc0-0515bb3f661d}, !- Handle
  Schedule Day 2,                         !- Name
  ,                                       !- Schedule Type Limits Name
  ,                                       !- Interpolate to Timestep
  24,                                     !- Hour 1
  0,                                      !- Minute 1
  0;                                      !- Value Until Time 1

OS:Schedule:Day,
  {d0d7397e-8ea8-4b77-9780-684e856438c0}, !- Handle
  0800|1700|Office|default|hoo Winter Design Day, !- Name
  {e33ccfc7-f96e-4232-9358-33c9f836323c}, !- Schedule Type Limits Name
  ,                                       !- Interpolate to Timestep
  24,                                     !- Hour 1
  0,                                      !- Minute 1
  0;                                      !- Value Until Time 1

OS:Schedule:Day,
  {0d44ec18-c5c7-4714-9392-57370f962085}, !- Handle
  Schedule Day 3,                         !- Name
  ,                                       !- Schedule Type Limits Name
  ,                                       !- Interpolate to Timestep
  24,                                     !- Hour 1
  0,                                      !- Minute 1
  0;                                      !- Value Until Time 1

OS:Schedule:Day,
  {7d1b8427-f0bf-4ecf-a101-ca7534f2d3c2}, !- Handle
  0800|1700|Office|default|hoo Summer Design Day, !- Name
  {e33ccfc7-f96e-4232-9358-33c9f836323c}, !- Schedule Type Limits Name
  ,                                       !- Interpolate to Timestep
  24,                                     !- Hour 1
  0,                                      !- Minute 1
  1;                                      !- Value Until Time 1

OS:DefaultScheduleSet,
  {a9a43701-a525-4289-afd4-d3222dd34903}, !- Handle
  Building Hours of Operation,            !- Name
  {99c0610b-b360-4c2b-9c56-5684d79a23a3}, !- Hours of Operation Schedule Name
  ,                                       !- Number of People Schedule Name
  ,                                       !- People Activity Level Schedule Name
  ,                                       !- Lighting Schedule Name
  ,                                       !- Electric Equipment Schedule Name
  ,                                       !- Gas Equipment Schedule Name
  ,                                       !- Hot Water Equipment Schedule Name
  ,                                       !- Infiltration Schedule Name
  ,                                       !- Steam Equipment Schedule Name
  ;                                       !- Other Equipment Schedule Name

OS:ScheduleTypeLimits,
  {e33ccfc7-f96e-4232-9358-33c9f836323c}, !- Handle
  OnOff,                                  !- Name
  0,                                      !- Lower Limit Value {BasedOnField A4}
  1,                                      !- Upper Limit Value {BasedOnField A4}
  Discrete,                               !- Numeric Type
  Availability;                           !- Unit Type

OS:Schedule:Ruleset,
  {eaf53363-a7c0-460d-9fad-b585eab8c0ec}, !- Handle
  0800|1700|Office|default|air_velocity,  !- Name
  {95b4a17d-fce2-475a-9579-5af795ccf3fa}, !- Schedule Type Limits Name
  {6df9464b-71ae-426a-b76e-b4d8a71b98e9}, !- Default Day Schedule Name
  {772da05f-5c7d-4dae-9bb7-16c915114051}, !- Summer Design Day Schedule Name
  {567fbbea-c935-443b-87a3-c61055dbc7e7}; !- Winter Design Day Schedule Name

OS:ScheduleTypeLimits,
  {95b4a17d-fce2-475a-9579-5af795ccf3fa}, !- Handle
  Dimensionless Schedule Type Limits,     !- Name
  ,                                       !- Lower Limit Value {BasedOnField A4}
  ,                                       !- Upper Limit Value {BasedOnField A4}
  Continuous,                             !- Numeric Type
  Dimensionless;                          !- Unit Type

OS:Schedule:Day,
  {6df9464b-71ae-426a-b76e-b4d8a71b98e9}, !- Handle
  0800|1700|Office|default|air_velocity |default, !- Name
  {95b4a17d-fce2-475a-9579-5af795ccf3fa}, !- Schedule Type Limits Name
  ,                                       !- Interpolate to Timestep
  24,                                     !- Hour 1
  0,                                      !- Minute 1
  0.200152;                               !- Value Until Time 1

OS:Schedule:Day,
  {772da05f-5c7d-4dae-9bb7-16c915114051}, !- Handle
  0800|1700|Office|default|air_velocity Summer Design Day, !- Name
  {95b4a17d-fce2-475a-9579-5af795ccf3fa}, !- Schedule Type Limits Name
  ,                                       !- Interpolate to Timestep
  24,                                     !- Hour 1
  0,                                      !- Minute 1
  0.200152;                               !- Value Until Time 1

OS:Schedule:Day,
  {567fbbea-c935-443b-87a3-c61055dbc7e7}, !- Handle
  0800|1700|Office|default|air_velocity Winter Design Day, !- Name
  {95b4a17d-fce2-475a-9579-5af795ccf3fa}, !- Schedule Type Limits Name
  ,                                       !- Interpolate to Timestep
  24,                                     !- Hour 1
  0,                                      !- Minute 1
  0.200152;                               !- Value Until Time 1

OS:Schedule:Ruleset,
  {1e5251b1-6c96-4790-a13b-9529cfdbc159}, !- Handle
  0800|1700|Office|default|swh_target_temp, !- Name
  {9c2eebc6-c36d-4ec5-af21-b45ce54e1661}, !- Schedule Type Limits Name
  {609244a8-45ad-4dc2-91ab-72464d37b27c}, !- Default Day Schedule Name
  {0fcc8243-f3ec-48ee-a8ba-7702a16f3287}, !- Summer Design Day Schedule Name
  {df8eac19-f818-4c8c-ac99-f4c489273e28}; !- Winter Design Day Schedule Name

OS:ScheduleTypeLimits,
  {9c2eebc6-c36d-4ec5-af21-b45ce54e1661}, !- Handle
  Temperature Schedule Type Limits,       !- Name
  ,                                       !- Lower Limit Value {BasedOnField A4}
  ,                                       !- Upper Limit Value {BasedOnField A4}
  Continuous,                             !- Numeric Type
  Temperature;                            !- Unit Type

OS:Schedule:Day,
  {609244a8-45ad-4dc2-91ab-72464d37b27c}, !- Handle
  0800|1700|Office|default|swh_target_temp |default, !- Name
  {9c2eebc6-c36d-4ec5-af21-b45ce54e1661}, !- Schedule Type Limits Name
  ,                                       !- Interpolate to Timestep
  24,                                     !- Hour 1
  0,                                      !- Minute 1
  71.1111111111111;                       !- Value Until Time 1

OS:Schedule:Day,
  {0fcc8243-f3ec-48ee-a8ba-7702a16f3287}, !- Handle
  0800|1700|Office|default|swh_target_temp Summer Design Day, !- Name
  {9c2eebc6-c36d-4ec5-af21-b45ce54e1661}, !- Schedule Type Limits Name
  ,                                       !- Interpolate to Timestep
  24,                                     !- Hour 1
  0,                                      !- Minute 1
  71.1111111111111;                       !- Value Until Time 1

OS:Schedule:Day,
  {df8eac19-f818-4c8c-ac99-f4c489273e28}, !- Handle
  0800|1700|Office|default|swh_target_temp Winter Design Day, !- Name
  {9c2eebc6-c36d-4ec5-af21-b45ce54e1661}, !- Schedule Type Limits Name
  ,                                       !- Interpolate to Timestep
  24,                                     !- Hour 1
  0,                                      !- Minute 1
  71.1111111111111;                       !- Value Until Time 1

OS:Schedule:Ruleset,
  {49f7db32-53f6-41f9-9aca-ad9ec869ea3b}, !- Handle
  0800|1700|Office|ClosedOffice|occ,      !- Name
  {f5e9fa24-2973-46ee-823c-98f7f35f33e5}, !- Schedule Type Limits Name
  {3f85eb9a-6f57-4cf3-8dae-c2957d10d6c2}, !- Default Day Schedule Name
  {4e2919d2-a9ff-411d-9e6a-cde8ff988fde}, !- Summer Design Day Schedule Name
  {5da2ad12-1645-47da-9f51-5bd23ffe2394}; !- Winter Design Day Schedule Name

OS:ScheduleTypeLimits,
  {f5e9fa24-2973-46ee-823c-98f7f35f33e5}, !- Handle
  Occupancy Schedule Type Limits,         !- Name
  0,                                      !- Lower Limit Value {BasedOnField A4}
  1,                                      !- Upper Limit Value {BasedOnField A4}
  Continuous,                             !- Numeric Type
  Dimensionless;                          !- Unit Type

OS:Schedule:Day,
  {3f85eb9a-6f57-4cf3-8dae-c2957d10d6c2}, !- Handle
  0800|1700|Office|ClosedOffice|occ |default, !- Name
  {f5e9fa24-2973-46ee-823c-98f7f35f33e5}, !- Schedule Type Limits Name
  ,                                       !- Interpolate to Timestep
  5,                                      !- Hour 1
  0,                                      !- Minute 1
  0,                                      !- Value Until Time 1
  5,                                      !- Hour 2
  30,                                     !- Minute 2
  0.05,                                   !- Value Until Time 2
  6,                                      !- Hour 3
  0,                                      !- Minute 3
  0.1,                                    !- Value Until Time 3
  6,                                      !- Hour 4
  30,                                     !- Minute 4
  0.15,                                   !- Value Until Time 4
  7,                                      !- Hour 5
  0,                                      !- Minute 5
  0.2,                                    !- Value Until Time 5
  7,                                      !- Hour 6
  30,                                     !- Minute 6
  0.25,                                   !- Value Until Time 6
  8,                                      !- Hour 7
  0,                                      !- Minute 7
  0.3,                                    !- Value Until Time 7
  12,                                     !- Hour 8
  0,                                      !- Minute 8
  0.85,                                   !- Value Until Time 8
  13,                                     !- Hour 9
  0,                                      !- Minute 9
  0.51,                                   !- Value Until Time 9
  17,                                     !- Hour 10
  0,                                      !- Minute 10
  0.85,                                   !- Value Until Time 10
  17,                                     !- Hour 11
  30,                                     !- Minute 11
  0.76,                                   !- Value Until Time 11
  18,                                     !- Hour 12
  0,                                      !- Minute 12
  0.68,                                   !- Value Until Time 12
  18,                                     !- Hour 13
  30,                                     !- Minute 13
  0.6,                                    !- Value Until Time 13
  19,                                     !- Hour 14
  0,                                      !- Minute 14
  0.51,                                   !- Value Until Time 14
  19,                                     !- Hour 15
  30,                                     !- Minute 15
  0.43,                                   !- Value Until Time 15
  20,                                     !- Hour 16
  0,                                      !- Minute 16
  0.34,                                   !- Value Until Time 16
  20,                                     !- Hour 17
  30,                                     !- Minute 17
  0.26,                                   !- Value Until Time 17
  21,                                     !- Hour 18
  0,                                      !- Minute 18
  0.17,                                   !- Value Until Time 18
  21,                                     !- Hour 19
  30,                                     !- Minute 19
  0.09,                                   !- Value Until Time 19
  24,                                     !- Hour 20
  0,                                      !- Minute 20
  0;                                      !- Value Until Time 20

OS:Schedule:Day,
  {4e2919d2-a9ff-411d-9e6a-cde8ff988fde}, !- Handle
  0800|1700|Office|ClosedOffice|occ Summer Design Day, !- Name
  {f5e9fa24-2973-46ee-823c-98f7f35f33e5}, !- Schedule Type Limits Name
  ,                                       !- Interpolate to Timestep
  5,                                      !- Hour 1
  0,                                      !- Minute 1
  0,                                      !- Value Until Time 1
  5,                                      !- Hour 2
  30,                                     !- Minute 2
  0.05,                                   !- Value Until Time 2
  6,                                      !- Hour 3
  0,                                      !- Minute 3
  0.1,                                    !- Value Until Time 3
  6,                                      !- Hour 4
  30,                                     !- Minute 4
  0.15,                                   !- Value Until Time 4
  7,                                      !- Hour 5
  0,                                      !- Minute 5
  0.2,                                    !- Value Until Time 5
  7,                                      !- Hour 6
  30,                                     !- Minute 6
  0.25,                                   !- Value Until Time 6
  20,                                     !- Hour 7
  0,                                      !- Minute 7
  1,                                      !- Value Until Time 7
  20,                                     !- Hour 8
  30,                                     !- Minute 8
  0.26,                                   !- Value Until Time 8
  21,                                     !- Hour 9
  0,                                      !- Minute 9
  0.17,                                   !- Value Until Time 9
  21,                                     !- Hour 10
  30,                                     !- Minute 10
  0.09,                                   !- Value Until Time 10
  24,                                     !- Hour 11
  0,                                      !- Minute 11
  0;                                      !- Value Until Time 11

OS:Schedule:Day,
  {5da2ad12-1645-47da-9f51-5bd23ffe2394}, !- Handle
  0800|1700|Office|ClosedOffice|occ Winter Design Day, !- Name
  {f5e9fa24-2973-46ee-823c-98f7f35f33e5}, !- Schedule Type Limits Name
  ,                                       !- Interpolate to Timestep
  24,                                     !- Hour 1
  0,                                      !- Minute 1
  0;                                      !- Value Until Time 1

OS:Schedule:Rule,
  {14815c57-00ea-4e73-8a60-59d89f20ffbb}, !- Handle
  0800|1700|Office|ClosedOffice|occ |1/1-12/31|Sun Rule, !- Name
  {49f7db32-53f6-41f9-9aca-ad9ec869ea3b}, !- Schedule Ruleset Name
  0,                                      !- Rule Order
  {06631932-8607-406b-a944-82127664ba31}, !- Day Schedule Name
  Yes,                                    !- Apply Sunday
  ,                                       !- Apply Monday
  ,                                       !- Apply Tuesday
  ,                                       !- Apply Wednesday
  ,                                       !- Apply Thursday
  ,                                       !- Apply Friday
  ,                                       !- Apply Saturday
  ,                                       !- Apply Holiday
  DateRange,                              !- Date Specification Type
  1,                                      !- Start Month
  1,                                      !- Start Day
  12,                                     !- End Month
  31;                                     !- End Day

OS:Schedule:Day,
  {06631932-8607-406b-a944-82127664ba31}, !- Handle
  0800|1700|Office|ClosedOffice|occ |1/1-12/31|Sun, !- Name
  {f5e9fa24-2973-46ee-823c-98f7f35f33e5}, !- Schedule Type Limits Name
  ,                                       !- Interpolate to Timestep
  24,                                     !- Hour 1
  0,                                      !- Minute 1
  0;                                      !- Value Until Time 1

OS:Schedule:Rule,
  {e48a8908-f37d-4433-9bae-3ecff7095f21}, !- Handle
  0800|1700|Office|ClosedOffice|occ |1/1-12/31|Sat Rule, !- Name