
OS:Version,
  {b28b5d4d-72ea-4afd-91db-df97b2622df4}, !- Handle
  1.6.0;                                  !- Version Identifier

OS:ClimateZones,
  {135edfab-17e7-40db-a436-27d385a8cd6d}, !- Handle
  ,                                       !- Active Institution
  ,                                       !- Active Year
  ASHRAE,                                 !- Climate Zone Institution Name 1
  ANSI/ASHRAE Standard 169,               !- Climate Zone Document Name 1
  2006,                                   !- Climate Zone Document Year 1
  ,                                       !- Climate Zone Value 1
  CEC,                                    !- Climate Zone Institution Name 2
  California Climate Zone Descriptions,   !- Climate Zone Document Name 2
  1995,                                   !- Climate Zone Document Year 2
  ;                                       !- Climate Zone Value 2

OS:YearDescription,
  {513d8dda-86cb-442a-b01c-1f7f0e0ac70e}; !- Handle

OS:RadianceParameters,
  {270a96f1-3c86-4b75-a667-cdf22790e2c8}, !- Handle
  1,                                      !- Accumulated Rays per Record
  0,                                      !- Direct Threshold
  1,                                      !- Direct Certainty
  1,                                      !- Direct Jitter
  1,                                      !- Direct Pretest
  6,                                      !- Ambient Bounces VMX
  2,                                      !- Ambient Bounces DMX
  4050,                                   !- Ambient Divisions VMX
  512,                                    !- Ambient Divisions DMX
  256,                                    !- Ambient Supersamples
  0.001,                                  !- Limit Weight VMX
  0.001,                                  !- Limit Weight DMX
  500,                                    !- Klems Sampling Density
  146;                                    !- Sky Discretization Resolution

OS:SimulationControl,
  {2c487a4c-bac9-4ac5-b669-1e49d9da7c2b}, !- Handle
  ,                                       !- Do Zone Sizing Calculation
  ,                                       !- Do System Sizing Calculation
  ,                                       !- Do Plant Sizing Calculation
  No,                                     !- Run Simulation for Sizing Periods
  ,                                       !- Run Simulation for Weather File Run Periods
  0.04,                                   !- Loads Convergence Tolerance Value
  ,                                       !- Temperature Convergence Tolerance Value {deltaC}
  ,                                       !- Solar Distribution
  ,                                       !- Maximum Number of Warmup Days
  2;                                      !- Minimum Number of Warmup Days

OS:Sizing:Parameters,
  {dde5af6f-7923-4600-a28a-7556673a0266}, !- Handle
  1.25,                                   !- Heating Sizing Factor
  1.15;                                   !- Cooling Sizing Factor

OS:ProgramControl,
  {05027a99-f2b3-4aeb-afc6-1425fbb4371d}; !- Handle

OS:Timestep,
  {4ebc9f1e-4707-402e-9844-67eb1ffbd522}, !- Handle
  2;                                      !- Number of Timesteps per Hour

OS:OutputControl:ReportingTolerances,
  {65797aa2-06a9-45fe-b69d-bc6e060399d3}; !- Handle

OS:ConvergenceLimits,
  {9fc11aba-8822-4f3d-970c-46391ba4040d}; !- Handle

OS:ShadowCalculation,
  {ca758bea-4416-4626-9bba-3d8795c79bd6}, !- Handle
  7,                                      !- Calculation Frequency
  15000;                                  !- Maximum Figures in Shadow Overlap Calculations

OS:SurfaceConvectionAlgorithm:Inside,
  {aaabfc36-718a-4ab0-b622-f186ebb45230}, !- Handle
  TARP;                                   !- Algorithm

OS:SurfaceConvectionAlgorithm:Outside,
  {9a0a9f6f-4bbd-4b12-a121-9492a1fcd7d6}, !- Handle
  DOE-2;                                  !- Algorithm

OS:HeatBalanceAlgorithm,
  {9d93e563-e1e0-46d7-9e39-d1c8aceb7212}, !- Handle
  ConductionTransferFunction,             !- Algorithm
  200;                                    !- Surface Temperature Upper Limit {F}

OS:ZoneAirHeatBalanceAlgorithm,
  {8520d93e-310f-4696-9bcd-36228bfdd743}, !- Handle
  AnalyticalSolution;                     !- Algorithm

OS:ZoneAirContaminantBalance,
  {eb5fc3ae-fb22-4160-8fcb-3e3b22b000d3}; !- Handle

OS:ZoneCapacitanceMultiplier:ResearchSpecial,
  {4020ce4f-5a7a-4849-8028-8305d7b751b1}, !- Handle
  ,                                       !- Temperature Capacity Multiplier
  ,                                       !- Humidity Capacity Multiplier
  ;                                       !- Carbon Dioxide Capacity Multiplier

OS:RunPeriod,
  {28df894d-6af9-4fb8-8f56-df1753344aa3}, !- Handle
  Run Period 1,                           !- Name
  1,                                      !- Begin Month
  1,                                      !- Begin Day of Month
  12,                                     !- End Month
  31,                                     !- End Day of Month
  ,                                       !- Use Weather File Holidays and Special Days
  ,                                       !- Use Weather File Daylight Saving Period
  ,                                       !- Apply Weekend Holiday Rule
  ,                                       !- Use Weather File Rain Indicators
  ,                                       !- Use Weather File Snow Indicators
  ;                                       !- Number of Times Runperiod to be Repeated

OS:Building,
  {bf305633-c5a1-4881-9edf-ca5e1a8e1274}, !- Handle
  Building 1,                             !- Name
  ,                                       !- Building Sector Type
  ,                                       !- North Axis {deg}
  ,                                       !- Nominal Floor to Floor Height {m}
  ,                                       !- Space Type Name
  ,                                       !- Default Construction Set Name
  {a01dca3c-fe5b-4484-b0c2-e499cfc79cd2}, !- Default Schedule Set Name
  ,                                       !- Standards Number of Stories
  ,                                       !- Standards Number of Above Ground Stories
  Office;                                 !- Standards Building Type

OS:LifeCycleCost:Parameters,
  {231cf8a0-f0e7-4251-a99f-11f0d464e661}, !- Handle
  FEMP,                                   !- Analysis Type
  ,                                       !- Discounting Convention
  ,                                       !- Inflation Approach
  ,                                       !- Real Discount Rate
  ,                                       !- Nominal Discount Rate
  ,                                       !- Inflation
  ,                                       !- Base Date Month
  ,                                       !- Base Date Year
  ,                                       !- Service Date Month
  ,                                       !- Service Date Year
  ,                                       !- Length of Study Period in Years
  ,                                       !- Tax Rate
  ,                                       !- Depreciation Method
  Yes;                                    !- Use NIST Fuel Escalation Rates

OS:Facility,
  {3ba8e45b-b833-44eb-a723-ea6c3946dc96}; !- Handle

OS:SpaceType,
  {cb5145f4-6578-4db8-beeb-77de78da0d3a}, !- Handle
  Office|BlendA|DOE Ref 2004|ASHRAE 169-2006-5A, !- Name
  {054f13dd-2962-40bc-ad7a-3eb3709f281d}, !- Default Construction Set Name
  ,                                       !- Default Schedule Set Name
  {6169903d-ca55-4bc2-8ebc-4d7a02898b5b}, !- Group Rendering Name
  {fab94f06-7fa6-451a-b6d6-2598dd118bee}, !- Design Specification Outdoor Air Object Name
  Office,                                 !- Standards Building Type
  BlendA;                                 !- Standards Space Type

OS:Rendering:Color,
  {6169903d-ca55-4bc2-8ebc-4d7a02898b5b}, !- Handle
  Rendering Color 1,                      !- Name
  120,                                    !- Rendering Red Value
  230,                                    !- Rendering Green Value
  199;                                    !- Rendering Blue Value

OS:SpaceType,
  {27da02ab-8524-4eca-97d5-022ea45178c4}, !- Handle
  Office|BlendB|DOE Ref 2004|ASHRAE 169-2006-5A, !- Name
  {054f13dd-2962-40bc-ad7a-3eb3709f281d}, !- Default Construction Set Name
  ,                                       !- Default Schedule Set Name
  {9f26742e-fc12-4415-ac55-3fb08328109f}, !- Group Rendering Name
  {50c8b1ff-5d7b-4ec6-93b6-db9ee774ce8c}, !- Design Specification Outdoor Air Object Name
  Office,                                 !- Standards Building Type
  BlendB;                                 !- Standards Space Type

OS:Rendering:Color,
  {9f26742e-fc12-4415-ac55-3fb08328109f}, !- Handle
  Rendering Color 2,                      !- Name
  120,                                    !- Rendering Red Value
  149,                                    !- Rendering Green Value
  230;                                    !- Rendering Blue Value

OS:SpaceType,
  {69be1128-f2e2-4b34-ae09-ba6602805e9a}, !- Handle
  Office|BlendC|DOE Ref 2004|ASHRAE 169-2006-5A, !- Name
  {054f13dd-2962-40bc-ad7a-3eb3709f281d}, !- Default Construction Set Name
  ,                                       !- Default Schedule Set Name
  {3316e0cd-e970-4cf4-989e-655c13a36a30}, !- Group Rendering Name
  {7634e46d-7827-4422-9fc2-b91dcfdf1dfd}, !- Design Specification Outdoor Air Object Name
  Office,                                 !- Standards Building Type
  BlendC;                                 !- Standards Space Type

OS:Rendering:Color,
  {3316e0cd-e970-4cf4-989e-655c13a36a30}, !- Handle
  Rendering Color 3,                      !- Name
  41,                                     !- Rendering Red Value
  31,                                     !- Rendering Green Value
  169;                                    !- Rendering Blue Value

OS:SpaceType,
  {5c5a6e2d-8ff0-41ac-a93b-dce48f9607d3}, !- Handle
  Office|Restroom|DOE Ref 2004|ASHRAE 169-2006-5A, !- Name
  {054f13dd-2962-40bc-ad7a-3eb3709f281d}, !- Default Construction Set Name
  {adfddbf5-c408-4b1e-b1c6-411936841178}, !- Default Schedule Set Name
  {277dc83b-7de1-4de8-bc1f-59f4d8d0ee71}, !- Group Rendering Name
  {3c237aa0-b67e-48ff-8e24-93cbf12d2761}, !- Design Specification Outdoor Air Object Name
  Office,                                 !- Standards Building Type
  Restroom;                               !- Standards Space Type

OS:Rendering:Color,
  {277dc83b-7de1-4de8-bc1f-59f4d8d0ee71}, !- Handle
  Rendering Color 4,                      !- Name
  169,                                    !- Rendering Red Value
  169,                                    !- Rendering Green Value
  31;                                     !- Rendering Blue Value

OS:Schedule:Ruleset,
  {e4b0ba51-3637-4ce4-b2f0-b38aa5bb98c2}, !- Handle
  0800|1700|Office|default|hoo,           !- Name
  {fe52073f-4392-4260-b343-4095c58772fd}, !- Schedule Type Limits Name
  {ef9a57ae-c42a-4fc1-9fff-ac4757f95578}, !- Default Day Schedule Name
  {d1bfbb7d-2807-45c4-8280-ab75b9ef5fbc}, !- Summer Design Day Schedule Name
  {8e455805-874a-4325-9552-878e34287f0b}; !- Winter Design Day Schedule Name

OS:Schedule:Day,
  {ef9a57ae-c42a-4fc1-9fff-ac4757f95578}, !- Handle
  0800|1700|Office|default|hoo Schedule Week Day, !- Name
  {fe52073f-4392-4260-b343-4095c58772fd}, !- Schedule Type Limits Name
  ,                                       !- Interpolate to Timestep
  8,                                      !- Hour 1
  0,                                      !- Minute 1
  0,                                      !- Value Until Time 1
  17,                                     !- Hour 2
  0,                                      !- Minute 2
  1,                                      !- Value Until Time 2
  24,                                     !- Hour 3
  0,                                      !- Minute 3
  0;                                      !- Value Until Time 3

OS:Schedule:Day,
  {76f2f92f-a2dd-4ffc-a79d-7e54996d53d9}, !- Handle
  Schedule Day 2,                         !- Name
  ,                                       !- Schedule Type Limits Name
  ,                                       !- Interpolate to Timestep
  24,                                     !- Hour 1
  0,                                      !- Minute 1
  0;                                      !- Value Until Time 1

OS:Schedule:Day,
  {8e455805-874a-4325-9552-878e34287f0b}, !- Handle
  0800|1700|Office|default|hoo Winter Design Day, !- Name
  {fe52073f-4392-4260-b343-4095c58772fd}, !- Schedule Type Limits Name
  ,                                       !- Interpolate to Timestep
  24,                                     !- Hour 1
  0,                                      !- Minute 1
  0;                                      !- Value Until Time 1

OS:Schedule:Day,
  {e2da8d0c-a193-4cb8-9ee5-1813a068583c}, !- Handle
  Schedule Day 3,                         !- Name
  ,                                       !- Schedule Type Limits Name
  ,                                       !- Interpolate to Timestep
  24,                                     !- Hour 1
  0,                                      !- Minute 1
  0;                                      !- Value Until Time 1

OS:Schedule:Day,
  {d1bfbb7d-2807-45c4-8280-ab75b9ef5fbc}, !- Handle
  0800|1700|Office|default|hoo Summer Design Day, !- Name
  {fe52073f-4392-4260-b343-4095c58772fd}, !- Schedule Type Limits Name
  ,                                       !- Interpolate to Timestep
  24,                                     !- Hour 1
  0,                                      !- Minute 1
  1;                                      !- Value Until Time 1

OS:DefaultScheduleSet,
  {a01dca3c-fe5b-4484-b0c2-e499cfc79cd2}, !- Handle
  Building Hours of Operation,            !- Name
  {e4b0ba51-3637-4ce4-b2f0-b38aa5bb98c2}, !- Hours of Operation Schedule Name
  ,                                       !- Number of People Schedule Name
  ,                                       !- People Activity Level Schedule Name
  ,                                       !- Lighting Schedule Name
  ,                                       !- Electric Equipment Schedule Name
  ,                                       !- Gas Equipment Schedule Name
  ,                                       !- Hot Water Equipment Schedule Name
  ,                                       !- Infiltration Schedule Name
  ,                                       !- Steam Equipment Schedule Name
  ;                                       !- Other Equipment Schedule Name

OS:ScheduleTypeLimits,
  {fe52073f-4392-4260-b343-4095c58772fd}, !- Handle
  OnOff,                                  !- Name
  0,                                      !- Lower Limit Value {BasedOnField A4}
  1,                                      !- Upper Limit Value {BasedOnField A4}
  Discrete,                               !- Numeric Type
  Availability;                           !- Unit Type

OS:Schedule:Ruleset,
  {f2876455-53c8-4da0-ba83-7206206e1dcc}, !- Handle
  0800|1700|Office|default|air_velocity,  !- Name
  {466e3e2e-0d40-4bc9-a223-14032a4af215}, !- Schedule Type Limits Name
  {8429d3f5-8c6a-4138-97e4-5cda142880ac}, !- Default Day Schedule Name
  {3e1e3645-1dd7-4398-84b3-626f400be4d2}, !- Summer Design Day Schedule Name
  {f074b9e7-e4c7-4109-a9e0-2ef9b76a1e77}; !- Winter Design Day Schedule Name

OS:ScheduleTypeLimits,
  {466e3e2e-0d40-4bc9-a223-14032a4af215}, !- Handle
  Dimensionless Schedule Type Limits,     !- Name
  ,                                       !- Lower Limit Value {BasedOnField A4}
  ,                                       !- Upper Limit Value {BasedOnField A4}
  Continuous,                             !- Numeric Type
  Dimensionless;                          !- Unit Type

OS:Schedule:Day,
  {8429d3f5-8c6a-4138-97e4-5cda142880ac}, !- Handle
  0800|1700|Office|default|air_velocity |default, !- Name
  {466e3e2e-0d40-4bc9-a223-14032a4af215}, !- Schedule Type Limits Name
  ,                                       !- Interpolate to Timestep
  24,                                     !- Hour 1
  0,                                      !- Minute 1
  0.200152;                               !- Value Until Time 1

OS:Schedule:Day,
  {3e1e3645-1dd7-4398-84b3-626f400be4d2}, !- Handle
  0800|1700|Office|default|air_velocity Summer Design Day, !- Name
  {466e3e2e-0d40-4bc9-a223-14032a4af215}, !- Schedule Type Limits Name
  ,                                       !- Interpolate to Timestep
  24,                                     !- Hour 1
  0,                                      !- Minute 1
  0.200152;                               !- Value Until Time 1

OS:Schedule:Day,
  {f074b9e7-e4c7-4109-a9e0-2ef9b76a1e77}, !- Handle
  0800|1700|Office|default|air_velocity Winter Design Day, !- Name
  {466e3e2e-0d40-4bc9-a223-14032a4af215}, !- Schedule Type Limits Name
  ,                                       !- Interpolate to Timestep
  24,                                     !- Hour 1
  0,                                      !- Minute 1
  0.200152;                               !- Value Until Time 1

OS:Schedule:Ruleset,
  {03a11e7e-b541-43f8-85d7-c337320a2f39}, !- Handle
  0800|1700|Office|default|swh_target_temp, !- Name
  {6e0955e4-e731-4557-a8b1-76099534bc94}, !- Schedule Type Limits Name
  {c7e0b39a-577d-4a4f-bd2b-e905b6b99b08}, !- Default Day Schedule Name
  {fa99f2fd-e376-41f3-b273-63b0acc101f7}, !- Summer Design Day Schedule Name
  {93235b01-97de-4dd6-a0e2-206c1c711024}; !- Winter Design Day Schedule Name

OS:ScheduleTypeLimits,
  {6e0955e4-e731-4557-a8b1-76099534bc94}, !- Handle
  Temperature Schedule Type Limits,       !- Name
  ,                                       !- Lower Limit Value {BasedOnField A4}
  ,                                       !- Upper Limit Value {BasedOnField A4}
  Continuous,                             !- Numeric Type
  Temperature;                            !- Unit Type

OS:Schedule:Day,
  {c7e0b39a-577d-4a4f-bd2b-e905b6b99b08}, !- Handle
  0800|1700|Office|default|swh_target_temp |default, !- Name
  {6e0955e4-e731-4557-a8b1-76099534bc94}, !- Schedule Type Limits Name
  ,                                       !- Interpolate to Timestep
  24,                                     !- Hour 1
  0,                                      !- Minute 1
  71.1111111111111;                       !- Value Until Time 1

OS:Schedule:Day,
  {fa99f2fd-e376-41f3-b273-63b0acc101f7}, !- Handle
  0800|1700|Office|default|swh_target_temp Summer Design Day, !- Name
  {6e0955e4-e731-4557-a8b1-76099534bc94}, !- Schedule Type Limits Name
  ,                                       !- Interpolate to Timestep
  24,                                     !- Hour 1
  0,                                      !- Minute 1
  71.1111111111111;                       !- Value Until Time 1

OS:Schedule:Day,
  {93235b01-97de-4dd6-a0e2-206c1c711024}, !- Handle
  0800|1700|Office|default|swh_target_temp Winter Design Day, !- Name
  {6e0955e4-e731-4557-a8b1-76099534bc94}, !- Schedule Type Limits Name
  ,                                       !- Interpolate to Timestep
  24,                                     !- Hour 1
  0,                                      !- Minute 1
  71.1111111111111;                       !- Value Until Time 1

OS:Schedule:Ruleset,
  {c46c6487-cef5-42bf-909b-cbb9e8d3d11c}, !- Handle
  0800|1700|Office|ClosedOffice|occ,      !- Name
  {54306a9f-1d7a-41a8-a4ac-7c617e50e9bb}, !- Schedule Type Limits Name
  {13b2c183-d9b0-4547-8111-a24fc39ccc0e}, !- Default Day Schedule Name
  {50c9c308-0c52-43e9-bffb-a49d94cc52e5}, !- Summer Design Day Schedule Name
  {46a6a04e-00d5-407a-ac31-0616ac8e9fd0}; !- Winter Design Day Schedule Name

OS:ScheduleTypeLimits,
  {54306a9f-1d7a-41a8-a4ac-7c617e50e9bb}, !- Handle
  Occupancy Schedule Type Limits,         !- Name
  0,                                      !- Lower Limit Value {BasedOnField A4}
  1,                                      !- Upper Limit Value {BasedOnField A4}
  Continuous,                             !- Numeric Type
  Dimensionless;                          !- Unit Type

OS:Schedule:Day,
  {13b2c183-d9b0-4547-8111-a24fc39ccc0e}, !- Handle
  0800|1700|Office|ClosedOffice|occ |default, !- Name
  {54306a9f-1d7a-41a8-a4ac-7c617e50e9bb}, !- Schedule Type Limits Name
  ,                                       !- Interpolate to Timestep
  5,                                      !- Hour 1
  0,                                      !- Minute 1
  0,                                      !- Value Until Time 1
  5,                                      !- Hour 2
  30,                                     !- Minute 2
  0.05,                                   !- Value Until Time 2
  6,                                      !- Hour 3
  0,                                      !- Minute 3
  0.1,                                    !- Value Until Time 3
  6,                                      !- Hour 4
  30,                                     !- Minute 4
  0.15,                                   !- Value Until Time 4
  7,                                      !- Hour 5
  0,                                      !- Minute 5
  0.2,                                    !- Value Until Time 5
  7,                                      !- Hour 6
  30,                                     !- Minute 6
  0.25,                                   !- Value Until Time 6
  8,                                      !- Hour 7
  0,                                      !- Minute 7
  0.3,                                    !- Value Until Time 7
  12,                                     !- Hour 8
  0,                                      !- Minute 8
  0.85,                                   !- Value Until Time 8
  13,                                     !- Hour 9
  0,                                      !- Minute 9
  0.51,                                   !- Value Until Time 9
  17,                                     !- Hour 10
  0,                                      !- Minute 10
  0.85,                                   !- Value Until Time 10
  17,                                     !- Hour 11
  30,                                     !- Minute 11
  0.76,                                   !- Value Until Time 11
  18,                                     !- Hour 12
  0,                                      !- Minute 12
  0.68,                                   !- Value Until Time 12
  18,                                     !- Hour 13
  30,                                     !- Minute 13
  0.6,                                    !- Value Until Time 13
  19,                                     !- Hour 14
  0,                                      !- Minute 14
  0.51,                                   !- Value Until Time 14
  19,                                     !- Hour 15
  30,                                     !- Minute 15
  0.43,                                   !- Value Until Time 15
  20,                                     !- Hour 16
  0,                                      !- Minute 16
  0.34,                                   !- Value Until Time 16
  20,                                     !- Hour 17
  30,                                     !- Minute 17
  0.26,                                   !- Value Until Time 17
  21,                                     !- Hour 18
  0,                                      !- Minute 18
  0.17,                                   !- Value Until Time 18
  21,                                     !- Hour 19
  30,                                     !- Minute 19
  0.09,                                   !- Value Until Time 19
  24,                                     !- Hour 20
  0,                                      !- Minute 20
  0;                                      !- Value Until Time 20

OS:Schedule:Day,
  {50c9c308-0c52-43e9-bffb-a49d94cc52e5}, !- Handle
  0800|1700|Office|ClosedOffice|occ Summer Design Day, !- Name
  {54306a9f-1d7a-41a8-a4ac-7c617e50e9bb}, !- Schedule Type Limits Name
  ,                                       !- Interpolate to Timestep
  5,                                      !- Hour 1
  0,                                      !- Minute 1
  0,                                      !- Value Until Time 1
  5,                                      !- Hour 2
  30,                                     !- Minute 2
  0.05,                                   !- Value Until Time 2
  6,                                      !- Hour 3
  0,                                      !- Minute 3
  0.1,                                    !- Value Until Time 3
  6,                                      !- Hour 4
  30,                                     !- Minute 4
  0.15,                                   !- Value Until Time 4
  7,                                      !- Hour 5
  0,                                      !- Minute 5
  0.2,                                    !- Value Until Time 5
  7,                                      !- Hour 6
  30,                                     !- Minute 6
  0.25,                                   !- Value Until Time 6
  20,                                     !- Hour 7
  0,                                      !- Minute 7
  1,                                      !- Value Until Time 7
  20,                                     !- Hour 8
  30,                                     !- Minute 8
  0.26,                                   !- Value Until Time 8
  21,                                     !- Hour 9
  0,                                      !- Minute 9
  0.17,                                   !- Value Until Time 9
  21,                                     !- Hour 10
  30,                                     !- Minute 10
  0.09,                                   !- Value Until Time 10
  24,                                     !- Hour 11
  0,                                      !- Minute 11
  0;                                      !- Value Until Time 11

OS:Schedule:Day,
  {46a6a04e-00d5-407a-ac31-0616ac8e9fd0}, !- Handle
  0800|1700|Office|ClosedOffice|occ Winter Design Day, !- Name
  {54306a9f-1d7a-41a8-a4ac-7c617e50e9bb}, !- Schedule Type Limits Name
  ,                                       !- Interpolate to Timestep
  24,                                     !- Hour 1
  0,                                      !- Minute 1
  0;                                      !- Value Until Time 1

OS:Schedule:Rule,
  {56d442a1-e802-4fb8-9ed6-a5ee8bed7777}, !- Handle
  0800|1700|Office|ClosedOffice|occ |1/1-12/31|Sun Rule, !- Name
  {c46c6487-cef5-42bf-909b-cbb9e8d3d11c}, !- Schedule Ruleset Name
  0,                                      !- Rule Order
  {cb022d22-4e3f-4de5-b3bd-e31e117d35de}, !- Day Schedule Name
  Yes,                                    !- Apply Sunday
  ,                                       !- Apply Monday
  ,                                       !- Apply Tuesday
  ,                                       !- Apply Wednesday
  ,                                       !- Apply Thursday
  ,                                       !- Apply Friday
  ,                                       !- Apply Saturday
  ,                                       !- Apply Holiday
  DateRange,                              !- Date Specification Type
  1,                                      !- Start Month
  1,                                      !- Start Day
  12,                                     !- End Month
  31;                                     !- End Day

OS:Schedule:Day,
  {cb022d22-4e3f-4de5-b3bd-e31e117d35de}, !- Handle
  0800|1700|Office|ClosedOffice|occ |1/1-12/31|Sun, !- Name
  {54306a9f-1d7a-41a8-a4ac-7c617e50e9bb}, !- Schedule Type Limits Name
  ,                                       !- Interpolate to Timestep
  24,                                     !- Hour 1
  0,                                      !- Minute 1
  0;                                      !- Value Until Time 1

OS:Schedule:Rule,
  {45cb940f-dd52-4d2c-b521-14cc3e1bdf15}, !- Handle
  0800|1700|Office|ClosedOffice|occ |1/1-12/31|Sat Rule, !- Name
  {c46c6487-cef5-42bf-909b-cbb9e8d3d11c}, !- Schedule Ruleset Name
  1,                                      !- Rule Order
  {47b39343-e4bd-4cdb-82ec-303f48fc0469}, !- Day Schedule Name
  ,                                       !- Apply Sunday
  ,                                       !- Apply Monday
  ,                                       !- Apply Tuesday
  ,                                       !- Apply Wednesday
  ,                                       !- Apply Thursday
  ,                                       !- Apply Friday
  Yes,                                    !- Apply Saturday
  ,                                       !- Apply Holiday
  DateRange,                              !- Date Specification Type
  1,                                      !- Start Month
  1,                                      !- Start Day
  12,                                     !- End Month
  31;                                     !- End Day

OS:Schedule:Day,
  {47b39343-e4bd-4cdb-82ec-303f48fc0469}, !- Handle
  0800|1700|Office|ClosedOffice|occ |1/1-12/31|Sat, !- Name
  {54306a9f-1d7a-41a8-a4ac-7c617e50e9bb}, !- Schedule Type Limits Name
  ,                                       !- Interpolate to Timestep
  5,                                      !- Hour 1
  0,                                      !- Minute 1
  0,                                      !- Value Until Time 1
  5,                                      !- Hour 2
  30,                                     !- Minute 2
  0.03,                                   !- Value Until Time 2
  6,                                      !- Hour 3
  0,                                      !- Minute 3
  0.07,                                   !- Value Until Time 3
  6,                                      !- Hour 4