
OS:Version,
  {ecd56f27-e94e-4e1d-916c-5c3caa3d43ab}, !- Handle
  1.5.5;                                  !- Version Identifier

OS:ClimateZones,
  {135edfab-17e7-40db-a436-27d385a8cd6d}, !- Handle
  ,                                       !- Active Institution
  ,                                       !- Active Year
  ASHRAE,                                 !- Climate Zone Institution Name 1
  ANSI/ASHRAE Standard 169,               !- Climate Zone Document Name 1
  2006,                                   !- Climate Zone Document Year 1
  ,                                       !- Climate Zone Value 1
  CEC,                                    !- Climate Zone Institution Name 2
  California Climate Zone Descriptions,   !- Climate Zone Document Name 2
  1995,                                   !- Climate Zone Document Year 2
  ;                                       !- Climate Zone Value 2

OS:YearDescription,
  {513d8dda-86cb-442a-b01c-1f7f0e0ac70e}; !- Handle

OS:RadianceParameters,
  {270a96f1-3c86-4b75-a667-cdf22790e2c8}, !- Handle
  1,                                      !- Accumulated Rays per Record
  0,                                      !- Direct Threshold
  1,                                      !- Direct Certainty
  1,                                      !- Direct Jitter
  1,                                      !- Direct Pretest
  6,                                      !- Ambient Bounces VMX
  2,                                      !- Ambient Bounces DMX
  4050,                                   !- Ambient Divisions VMX
  512,                                    !- Ambient Divisions DMX
  256,                                    !- Ambient Supersamples
  0.001,                                  !- Limit Weight VMX
  0.001,                                  !- Limit Weight DMX
  500,                                    !- Klems Sampling Density
  146;                                    !- Sky Discretization Resolution

OS:SimulationControl,
  {2c487a4c-bac9-4ac5-b669-1e49d9da7c2b}, !- Handle
  ,                                       !- Do Zone Sizing Calculation
  ,                                       !- Do System Sizing Calculation
  ,                                       !- Do Plant Sizing Calculation
  No,                                     !- Run Simulation for Sizing Periods
  ,                                       !- Run Simulation for Weather File Run Periods
  0.04,                                   !- Loads Convergence Tolerance Value
  ,                                       !- Temperature Convergence Tolerance Value {deltaC}
  ,                                       !- Solar Distribution
  ,                                       !- Maximum Number of Warmup Days
  2;                                      !- Minimum Number of Warmup Days

OS:Sizing:Parameters,
  {dde5af6f-7923-4600-a28a-7556673a0266}, !- Handle
  1.25,                                   !- Heating Sizing Factor
  1.15;                                   !- Cooling Sizing Factor

OS:ProgramControl,
  {05027a99-f2b3-4aeb-afc6-1425fbb4371d}; !- Handle

OS:Timestep,
  {4ebc9f1e-4707-402e-9844-67eb1ffbd522}, !- Handle
  2;                                      !- Number of Timesteps per Hour

OS:OutputControl:ReportingTolerances,
  {65797aa2-06a9-45fe-b69d-bc6e060399d3}; !- Handle

OS:ConvergenceLimits,
  {9fc11aba-8822-4f3d-970c-46391ba4040d}; !- Handle

OS:ShadowCalculation,
  {ca758bea-4416-4626-9bba-3d8795c79bd6}, !- Handle
  7,                                      !- Calculation Frequency
  15000;                                  !- Maximum Figures in Shadow Overlap Calculations

OS:SurfaceConvectionAlgorithm:Inside,
  {aaabfc36-718a-4ab0-b622-f186ebb45230}, !- Handle
  TARP;                                   !- Algorithm

OS:SurfaceConvectionAlgorithm:Outside,
  {9a0a9f6f-4bbd-4b12-a121-9492a1fcd7d6}, !- Handle
  DOE-2;                                  !- Algorithm

OS:HeatBalanceAlgorithm,
  {9d93e563-e1e0-46d7-9e39-d1c8aceb7212}, !- Handle
  ConductionTransferFunction,             !- Algorithm
  200;                                    !- Surface Temperature Upper Limit {F}

OS:ZoneAirHeatBalanceAlgorithm,
  {8520d93e-310f-4696-9bcd-36228bfdd743}, !- Handle
  AnalyticalSolution;                     !- Algorithm

OS:ZoneAirContaminantBalance,
  {eb5fc3ae-fb22-4160-8fcb-3e3b22b000d3}; !- Handle

OS:ZoneCapacitanceMultiplier:ResearchSpecial,
  {4020ce4f-5a7a-4849-8028-8305d7b751b1}, !- Handle
  ,                                       !- Temperature Capacity Multiplier
  ,                                       !- Humidity Capacity Multiplier
  ;                                       !- Carbon Dioxide Capacity Multiplier

OS:RunPeriod,
  {28df894d-6af9-4fb8-8f56-df1753344aa3}, !- Handle
  Run Period 1,                           !- Name
  1,                                      !- Begin Month
  1,                                      !- Begin Day of Month
  12,                                     !- End Month
  31,                                     !- End Day of Month
  ,                                       !- Use Weather File Holidays and Special Days
  ,                                       !- Use Weather File Daylight Saving Period
  ,                                       !- Apply Weekend Holiday Rule
  ,                                       !- Use Weather File Rain Indicators
  ,                                       !- Use Weather File Snow Indicators
  ;                                       !- Number of Times Runperiod to be Repeated

OS:Building,
  {bf305633-c5a1-4881-9edf-ca5e1a8e1274}, !- Handle
  Building 1,                             !- Name
  ,                                       !- Building Sector Type
  ,                                       !- North Axis {deg}
  ,                                       !- Nominal Floor to Floor Height {m}
  ,                                       !- Space Type Name
  ,                                       !- Default Construction Set Name
  {865f9d21-9258-4ce9-911c-01ecebaa695f}, !- Default Schedule Set Name
  ,                                       !- Standards Number of Stories
  ,                                       !- Standards Number of Above Ground Stories
  Office;                                 !- Standards Building Type

OS:LifeCycleCost:Parameters,
  {231cf8a0-f0e7-4251-a99f-11f0d464e661}, !- Handle
  FEMP,                                   !- Analysis Type
  ,                                       !- Discounting Convention
  ,                                       !- Inflation Approach
  ,                                       !- Real Discount Rate
  ,                                       !- Nominal Discount Rate
  ,                                       !- Inflation
  ,                                       !- Base Date Month
  ,                                       !- Base Date Year
  ,                                       !- Service Date Month
  ,                                       !- Service Date Year
  ,                                       !- Length of Study Period in Years
  ,                                       !- Tax Rate
  ,                                       !- Depreciation Method
  Yes;                                    !- Use NIST Fuel Escalation Rates

OS:Facility,
  {3ba8e45b-b833-44eb-a723-ea6c3946dc96}; !- Handle

OS:SpaceType,
  {016adf75-30fa-47d5-a5bb-4edd49a91ab9}, !- Handle
  Office|BlendA|DOE Ref 1980-2004|ASHRAE 169-2006-5A, !- Name
  {69af6958-e38a-4ce1-a10c-913ed761cb4f}, !- Default Construction Set Name
  ,                                       !- Default Schedule Set Name
  {01108d47-555c-458d-b1c7-827f57ae1b4a}, !- Group Rendering Name
  {4daebc4f-7f62-4bec-bb9f-095810de9281}, !- Design Specification Outdoor Air Object Name
  Office,                                 !- Standards Building Type
  BlendA;                                 !- Standards Space Type

OS:Rendering:Color,
  {01108d47-555c-458d-b1c7-827f57ae1b4a}, !- Handle
  Rendering Color 1,                      !- Name
  120,                                    !- Rendering Red Value
  230,                                    !- Rendering Green Value
  199;                                    !- Rendering Blue Value

OS:SpaceType,
  {1758b981-cbd6-4e32-8da7-50eb8948e587}, !- Handle
  Office|BlendB|DOE Ref 1980-2004|ASHRAE 169-2006-5A, !- Name
  {69af6958-e38a-4ce1-a10c-913ed761cb4f}, !- Default Construction Set Name
  ,                                       !- Default Schedule Set Name
  {72f93785-b911-43fc-bedf-48efa218c26e}, !- Group Rendering Name
  {6c6faf45-1570-41f8-9fb4-66a914ab3d12}, !- Design Specification Outdoor Air Object Name
  Office,                                 !- Standards Building Type
  BlendB;                                 !- Standards Space Type

OS:Rendering:Color,
  {72f93785-b911-43fc-bedf-48efa218c26e}, !- Handle
  Rendering Color 2,                      !- Name
  120,                                    !- Rendering Red Value
  149,                                    !- Rendering Green Value
  230;                                    !- Rendering Blue Value

OS:SpaceType,
  {88283a85-db37-400f-a084-9783d703c9e7}, !- Handle
  Office|IT_Room|DOE Ref 1980-2004|ASHRAE 169-2006-5A, !- Name
  {69af6958-e38a-4ce1-a10c-913ed761cb4f}, !- Default Construction Set Name
  {d42c2c41-6073-492e-a1e4-ceca124a041e}, !- Default Schedule Set Name
  {0cb990cc-32c8-43ae-8ddb-b3c75f7ffa74}, !- Group Rendering Name
  {8c255474-ada2-44e7-9428-a6e8f46948df}, !- Design Specification Outdoor Air Object Name
  Office,                                 !- Standards Building Type
  IT_Room;                                !- Standards Space Type

OS:Rendering:Color,
  {0cb990cc-32c8-43ae-8ddb-b3c75f7ffa74}, !- Handle
  Rendering Color 3,                      !- Name
  41,                                     !- Rendering Red Value
  31,                                     !- Rendering Green Value
  169;                                    !- Rendering Blue Value

OS:SpaceType,
  {d96acea7-bbcd-4809-a048-b5ffe86f00bf}, !- Handle
  Office|Elec/MechRoom|DOE Ref 1980-2004|ASHRAE 169-2006-5A, !- Name
  {69af6958-e38a-4ce1-a10c-913ed761cb4f}, !- Default Construction Set Name
  {020f9433-127b-4a7b-be7b-8ce80eb09290}, !- Default Schedule Set Name
  {00a3a94b-4dcd-43b2-8cbb-8ec528bf7f3d}, !- Group Rendering Name
  {d914b33c-18b5-4e64-9f84-9b8bc997ab6e}, !- Design Specification Outdoor Air Object Name
  Office,                                 !- Standards Building Type
  Elec/MechRoom;                          !- Standards Space Type

OS:Rendering:Color,
  {00a3a94b-4dcd-43b2-8cbb-8ec528bf7f3d}, !- Handle
  Rendering Color 4,                      !- Name
  41,                                     !- Rendering Red Value
  31,                                     !- Rendering Green Value
  169;                                    !- Rendering Blue Value

OS:SpaceType,
  {4b9c2042-2cc2-41a9-a706-4dc749726b6c}, !- Handle
  Office|PrintRoom|DOE Ref 1980-2004|ASHRAE 169-2006-5A, !- Name
  {69af6958-e38a-4ce1-a10c-913ed761cb4f}, !- Default Construction Set Name
  {bce1cc9d-4d79-4c88-9678-464cc839d9a8}, !- Default Schedule Set Name
  {1da72f84-d607-4f9b-a6f4-a2593d1b6e92}, !- Group Rendering Name
  {729b6eb2-7e6f-4296-b410-1550858141b2}, !- Design Specification Outdoor Air Object Name
  Office,                                 !- Standards Building Type
  PrintRoom;                              !- Standards Space Type

OS:Rendering:Color,
  {1da72f84-d607-4f9b-a6f4-a2593d1b6e92}, !- Handle
  Rendering Color 5,                      !- Name
  41,                                     !- Rendering Red Value
  31,                                     !- Rendering Green Value
  169;                                    !- Rendering Blue Value

OS:SpaceType,
  {763cbcfe-3dfd-410c-8da3-20cf3907e162}, !- Handle
  Office|Restroom|DOE Ref 1980-2004|ASHRAE 169-2006-5A, !- Name
  {69af6958-e38a-4ce1-a10c-913ed761cb4f}, !- Default Construction Set Name
  {31eef098-88c5-4623-82ec-db989367a8b6}, !- Default Schedule Set Name
  {ec84b3ac-670b-4c1e-bd31-81261cb335a2}, !- Group Rendering Name
  {20bad79b-84b1-420d-a72c-bd05f29d3226}, !- Design Specification Outdoor Air Object Name
  Office,                                 !- Standards Building Type
  Restroom;                               !- Standards Space Type

OS:Rendering:Color,
  {ec84b3ac-670b-4c1e-bd31-81261cb335a2}, !- Handle
  Rendering Color 6,                      !- Name
  169,                                    !- Rendering Red Value
  169,                                    !- Rendering Green Value
  31;                                     !- Rendering Blue Value

OS:Schedule:Ruleset,
  {2cced5be-4cfd-40e9-948e-1603c8133f0c}, !- Handle
  0800|1700|Office|default|hoo,           !- Name
  {62e7b6c1-00f2-46cd-a624-236112729399}, !- Schedule Type Limits Name
  {5315cb6f-f6aa-4695-b602-2d92eb19be28}, !- Default Day Schedule Name
  {abd80eac-9492-4a90-b78a-a15894b6ab4b}, !- Summer Design Day Schedule Name
  {2c2db7e1-e726-46f0-a87a-3b595e4da626}; !- Winter Design Day Schedule Name

OS:Schedule:Day,
  {5315cb6f-f6aa-4695-b602-2d92eb19be28}, !- Handle
  0800|1700|Office|default|hoo Schedule Week Day, !- Name
  {62e7b6c1-00f2-46cd-a624-236112729399}, !- Schedule Type Limits Name
  ,                                       !- Interpolate to Timestep
  8,                                      !- Hour 1
  0,                                      !- Minute 1
  0,                                      !- Value Until Time 1
  17,                                     !- Hour 2
  0,                                      !- Minute 2
  1,                                      !- Value Until Time 2
  24,                                     !- Hour 3
  0,                                      !- Minute 3
  0;                                      !- Value Until Time 3

OS:Schedule:Day,
  {54f17bb5-0bc6-45d9-91eb-1638bc6800b9}, !- Handle
  Schedule Day 2,                         !- Name
  ,                                       !- Schedule Type Limits Name
  ,                                       !- Interpolate to Timestep
  24,                                     !- Hour 1
  0,                                      !- Minute 1
  0;                                      !- Value Until Time 1

OS:Schedule:Day,
  {2c2db7e1-e726-46f0-a87a-3b595e4da626}, !- Handle
  0800|1700|Office|default|hoo Winter Design Day, !- Name
  {62e7b6c1-00f2-46cd-a624-236112729399}, !- Schedule Type Limits Name
  ,                                       !- Interpolate to Timestep
  24,                                     !- Hour 1
  0,                                      !- Minute 1
  0;                                      !- Value Until Time 1

OS:Schedule:Day,
  {68033c57-f911-428e-9c8e-2e4530ca79b5}, !- Handle
  Schedule Day 3,                         !- Name
  ,                                       !- Schedule Type Limits Name
  ,                                       !- Interpolate to Timestep
  24,                                     !- Hour 1
  0,                                      !- Minute 1
  0;                                      !- Value Until Time 1

OS:Schedule:Day,
  {abd80eac-9492-4a90-b78a-a15894b6ab4b}, !- Handle
  0800|1700|Office|default|hoo Summer Design Day, !- Name
  {62e7b6c1-00f2-46cd-a624-236112729399}, !- Schedule Type Limits Name
  ,                                       !- Interpolate to Timestep
  24,                                     !- Hour 1
  0,                                      !- Minute 1
  1;                                      !- Value Until Time 1

OS:DefaultScheduleSet,
  {865f9d21-9258-4ce9-911c-01ecebaa695f}, !- Handle
  Building Hours of Operation,            !- Name
  {2cced5be-4cfd-40e9-948e-1603c8133f0c}, !- Hours of Operation Schedule Name
  ,                                       !- Number of People Schedule Name
  ,                                       !- People Activity Level Schedule Name
  ,                                       !- Lighting Schedule Name
  ,                                       !- Electric Equipment Schedule Name
  ,                                       !- Gas Equipment Schedule Name
  ,                                       !- Hot Water Equipment Schedule Name
  ,                                       !- Infiltration Schedule Name
  ,                                       !- Steam Equipment Schedule Name
  ;                                       !- Other Equipment Schedule Name

OS:ScheduleTypeLimits,
  {62e7b6c1-00f2-46cd-a624-236112729399}, !- Handle
  OnOff,                                  !- Name
  0,                                      !- Lower Limit Value {BasedOnField A4}
  1,                                      !- Upper Limit Value {BasedOnField A4}
  Discrete,                               !- Numeric Type
  Availability;                           !- Unit Type

OS:Schedule:Ruleset,
  {070c0a33-8d45-42f2-8c1c-310a96369fc3}, !- Handle
  0800|1700|Office|default|occ,           !- Name
  {f4b21bdf-5219-4ced-9354-488fac46ee2e}, !- Schedule Type Limits Name
  {4d47659b-362e-42eb-972c-9a87b8f4be4c}, !- Default Day Schedule Name
  {d38a53c2-a615-4e90-b682-f3b9892a05c8}, !- Summer Design Day Schedule Name
  {0c375452-7b3c-46c7-b503-f14c3ddf71e2}; !- Winter Design Day Schedule Name

OS:ScheduleTypeLimits,
  {f4b21bdf-5219-4ced-9354-488fac46ee2e}, !- Handle
  Occupancy Schedule Type Limits,         !- Name
  0,                                      !- Lower Limit Value {BasedOnField A4}
  1,                                      !- Upper Limit Value {BasedOnField A4}
  Continuous,                             !- Numeric Type
  Dimensionless;                          !- Unit Type

OS:Schedule:Day,
  {4d47659b-362e-42eb-972c-9a87b8f4be4c}, !- Handle
  0800|1700|Office|default|occ |default,  !- Name
  {f4b21bdf-5219-4ced-9354-488fac46ee2e}, !- Schedule Type Limits Name
  ,                                       !- Interpolate to Timestep
  5,                                      !- Hour 1
  0,                                      !- Minute 1
  0,                                      !- Value Until Time 1
  5,                                      !- Hour 2
  30,                                     !- Minute 2
  0.07,                                   !- Value Until Time 2
  6,                                      !- Hour 3
  0,                                      !- Minute 3
  0.13,                                   !- Value Until Time 3
  6,                                      !- Hour 4
  30,                                     !- Minute 4
  0.2,                                    !- Value Until Time 4
  7,                                      !- Hour 5
  0,                                      !- Minute 5
  0.27,                                   !- Value Until Time 5
  7,                                      !- Hour 6
  30,                                     !- Minute 6
  0.33,                                   !- Value Until Time 6
  21,                                     !- Hour 7
  0,                                      !- Minute 7
  0.4,                                    !- Value Until Time 7
  21,                                     !- Hour 8
  30,                                     !- Minute 8
  0.2,                                    !- Value Until Time 8
  24,                                     !- Hour 9
  0,                                      !- Minute 9
  0;                                      !- Value Until Time 9

OS:Schedule:Day,
  {d38a53c2-a615-4e90-b682-f3b9892a05c8}, !- Handle
  0800|1700|Office|default|occ Summer Design Day, !- Name
  {f4b21bdf-5219-4ced-9354-488fac46ee2e}, !- Schedule Type Limits Name
  ,                                       !- Interpolate to Timestep
  5,                                      !- Hour 1
  0,                                      !- Minute 1
  0,                                      !- Value Until Time 1
  5,                                      !- Hour 2
  30,                                     !- Minute 2
  0.07,                                   !- Value Until Time 2
  6,                                      !- Hour 3
  0,                                      !- Minute 3
  0.13,                                   !- Value Until Time 3
  6,                                      !- Hour 4
  30,                                     !- Minute 4
  0.2,                                    !- Value Until Time 4
  7,                                      !- Hour 5
  0,                                      !- Minute 5
  0.27,                                   !- Value Until Time 5
  21,                                     !- Hour 6
  0,                                      !- Minute 6
  1,                                      !- Value Until Time 6
  21,                                     !- Hour 7
  30,                                     !- Minute 7
  0.2,                                    !- Value Until Time 7
  24,                                     !- Hour 8
  0,                                      !- Minute 8
  0;                                      !- Value Until Time 8

OS:Schedule:Day,
  {0c375452-7b3c-46c7-b503-f14c3ddf71e2}, !- Handle
  0800|1700|Office|default|occ Winter Design Day, !- Name
  {f4b21bdf-5219-4ced-9354-488fac46ee2e}, !- Schedule Type Limits Name
  ,                                       !- Interpolate to Timestep
  24,                                     !- Hour 1
  0,                                      !- Minute 1
  0;                                      !- Value Until Time 1

OS:Schedule:Rule,
  {9cdf2fe7-d791-4578-bada-f354ac9155e0}, !- Handle
  0800|1700|Office|default|occ |1/1-12/31|Sun Rule, !- Name
  {070c0a33-8d45-42f2-8c1c-310a96369fc3}, !- Schedule Ruleset Name
  0,                                      !- Rule Order
  {6cf23797-4503-47c9-bb88-51f83b35206a}, !- Day Schedule Name
  Yes,                                    !- Apply Sunday
  ,                                       !- Apply Monday
  ,                                       !- Apply Tuesday
  ,                                       !- Apply Wednesday
  ,                                       !- Apply Thursday
  ,                                       !- Apply Friday
  ,                                       !- Apply Saturday
  ,                                       !- Apply Holiday
  DateRange,                              !- Date Specification Type
  1,                                      !- Start Month
  1,                                      !- Start Day
  12,                                     !- End Month
  31;                                     !- End Day

OS:Schedule:Day,
  {6cf23797-4503-47c9-bb88-51f83b35206a}, !- Handle
  0800|1700|Office|default|occ |1/1-12/31|Sun, !- Name
  {f4b21bdf-5219-4ced-9354-488fac46ee2e}, !- Schedule Type Limits Name
  ,                                       !- Interpolate to Timestep
  24,                                     !- Hour 1
  0,                                      !- Minute 1
  0;                                      !- Value Until Time 1

OS:Schedule:Rule,
  {3e06337e-429e-4578-95cc-c39ee449bff4}, !- Handle
  0800|1700|Office|default|occ |1/1-12/31|Sat Rule, !- Name
  {070c0a33-8d45-42f2-8c1c-310a96369fc3}, !- Schedule Ruleset Name
  1,                                      !- Rule Order
  {df60116a-5d3a-444f-8e13-f8a860732920}, !- Day Schedule Name
  ,                                       !- Apply Sunday
  ,                                       !- Apply Monday
  ,                                       !- Apply Tuesday
  ,                                       !- Apply Wednesday
  ,                                       !- Apply Thursday
  ,                                       !- Apply Friday
  Yes,                                    !- Apply Saturday
  ,                                       !- Apply Holiday
  DateRange,                              !- Date Specification Type
  1,                                      !- Start Month
  1,                                      !- Start Day
  12,                                     !- End Month
  31;                                     !- End Day

OS:Schedule:Day,
  {df60116a-5d3a-444f-8e13-f8a860732920}, !- Handle
  0800|1700|Office|default|occ |1/1-12/31|Sat, !- Name
  {f4b21bdf-5219-4ced-9354-488fac46ee2e}, !- Schedule Type Limits Name
  ,                                       !- Interpolate to Timestep
  5,                                      !- Hour 1
  0,                                      !- Minute 1
  0,                                      !- Value Until Time 1
  5,                                      !- Hour 2
  30,                                     !- Minute 2
  0.04,                                   !- Value Until Time 2
  6,                                      !- Hour 3
  0,                                      !- Minute 3
  0.08,                                   !- Value Until Time 3
  6,                                      !- Hour 4
  30,                                     !- Minute 4
  0.13,                                   !- Value Until Time 4
  7,                                      !- Hour 5
  0,                                      !- Minute 5
  0.17,                                   !- Value Until Time 5
  7,                                      !- Hour 6
  30,                                     !- Minute 6
  0.21,                                   !- Value Until Time 6
  14,                                     !- Hour 7
  0,                                      !- Minute 7
  0.25,                                   !- Value Until Time 7
  14,                                     !- Hour 8
  30,                                     !- Minute 8
  0.22,                                   !- Value Until Time 8
  15,                                     !- Hour 9
  0,                                      !- Minute 9
  0.19,                                   !- Value Until Time 9
  15,                                     !- Hour 10
  30,                                     !- Minute 10
  0.16,                                   !- Value Until Time 10
  16,                                     !- Hour 11
  0,                                      !- Minute 11
  0.13,                                   !- Value Until Time 11
  16,                                     !- Hour 12
  30,                                     !- Minute 12
  0.09,                                   !- Value Until Time 12
  17,                                     !- Hour 13
  0,                                      !- Minute 13
  0.06,                                   !- Value Until Time 13
  17,                                     !- Hour 14
  30,                                     !- Minute 14
  0.03,                                   !- Value Until Time 14
  24,                                     !- Hour 15
  0,                                      !- Minute 15
  0;                                      !- Value Until Time 15

OS:Schedule:Ruleset,
  {798d5342-7742-4062-bc1d-030ebc124f25}, !- Handle
  0800|1700|Office|default|activity,      !- Name
  {5e401417-ba66-45eb-a190-124b8767f353}, !- Schedule Type Limits Name
  {e5d46420-a984-469a-a6b1-9389e3594b08}, !- Default Day Schedule Name
  {8dd92acd-89d0-44fe-a024-df61ee623bd8}, !- Summer Design Day Schedule Name
  {d789b29c-f001-4a93-a0ef-0497564c8453}; !- Winter Design Day Schedule Name

OS:ScheduleTypeLimits,
  {5e401417-ba66-45eb-a190-124b8767f353}, !- Handle
  People Activity Type Limits,            !- Name
  0,                                      !- Lower Limit Value {BasedOnField A4}
  ,                                       !- Upper Limit Value {BasedOnField A4}
  Continuous,                             !- Numeric Type
  ActivityLevel;                          !- Unit Type

OS:Schedule:Day,
  {e5d46420-a984-469a-a6b1-9389e3594b08}, !- Handle
  0800|1700|Office|default|activity |default, !- Name
  {5e401417-ba66-45eb-a190-124b8767f353}, !- Schedule Type Limits Name
  ,                                       !- Interpolate to Timestep
  24,                                     !- Hour 1
  0,                                      !- Minute 1
  120;                                    !- Value Until Time 1

OS:Schedule:Day,
  {8dd92acd-89d0-44fe-a024-df61ee623bd8}, !- Handle
  0800|1700|Office|default|activity Summer Design Day, !- Name
  {5e401417-ba66-45eb-a190-124b8767f353}, !- Schedule Type Limits Name
  ,                                       !- Interpolate to Timestep
  24,                                     !- Hour 1
  0,                                      !- Minute 1
  120;                                    !- Value Until Time 1

OS:Schedule:Day,
  {d789b29c-f001-4a93-a0ef-0497564c8453}, !- Handle
  0800|1700|Office|default|activity Winter Design Day, !- Name
  {5e401417-ba66-45eb-a190-124b8767f353}, !- Schedule Type Limits Name
  ,                                       !- Interpolate to Timestep
  24,                                     !- Hour 1
  0,                                      !- Minute 1
  120;                                    !- Value Until Time 1

OS:Schedule:Ruleset,
  {42f564bd-555f-44d1-b02b-91b3f27dd210}, !- Handle
  0800|1700|Office|default|elec_equip,    !- Name
  {ef787862-4a20-470f-a0b3-4295c762035f}, !- Schedule Type Limits Name
  {a1b649e9-358f-4247-9a72-f8b4b4bab57e}, !- Default Day Schedule Name
  {4cc7591b-6817-4061-9baa-c6cfa05ff643}, !- Summer Design Day Schedule Name
  {40dc7e62-f600-460e-ac1f-d7d511baeda7}; !- Winter Design Day Schedule Name

OS:ScheduleTypeLimits,
  {ef787862-4a20-470f-a0b3-4295c762035f}, !- Handle
  Equipment Schedule Type Limits,         !- Name
  0,                                      !- Lower Limit Value {BasedOnField A4}
  1,                                      !- Upper Limit Value {BasedOnField A4}
  Continuous,                             !- Numeric Type
  Dimensionless;                          !- Unit Type

OS:Schedule:Day,