
OS:Version,
  {633023ba-6355-4815-b528-0553733825a5}, !- Handle
  1.5.5;                                  !- Version Identifier

OS:ClimateZones,
  {135edfab-17e7-40db-a436-27d385a8cd6d}, !- Handle
  ,                                       !- Active Institution
  ,                                       !- Active Year
  ASHRAE,                                 !- Climate Zone Institution Name 1
  ANSI/ASHRAE Standard 169,               !- Climate Zone Document Name 1
  2006,                                   !- Climate Zone Document Year 1
  ,                                       !- Climate Zone Value 1
  CEC,                                    !- Climate Zone Institution Name 2
  California Climate Zone Descriptions,   !- Climate Zone Document Name 2
  1995,                                   !- Climate Zone Document Year 2
  ;                                       !- Climate Zone Value 2

OS:YearDescription,
  {513d8dda-86cb-442a-b01c-1f7f0e0ac70e}; !- Handle

OS:RadianceParameters,
  {270a96f1-3c86-4b75-a667-cdf22790e2c8}, !- Handle
  1,                                      !- Accumulated Rays per Record
  0,                                      !- Direct Threshold
  1,                                      !- Direct Certainty
  1,                                      !- Direct Jitter
  1,                                      !- Direct Pretest
  6,                                      !- Ambient Bounces VMX
  2,                                      !- Ambient Bounces DMX
  4050,                                   !- Ambient Divisions VMX
  512,                                    !- Ambient Divisions DMX
  256,                                    !- Ambient Supersamples
  0.001,                                  !- Limit Weight VMX
  0.001,                                  !- Limit Weight DMX
  500,                                    !- Klems Sampling Density
  146;                                    !- Sky Discretization Resolution

OS:SimulationControl,
  {2c487a4c-bac9-4ac5-b669-1e49d9da7c2b}, !- Handle
  ,                                       !- Do Zone Sizing Calculation
  ,                                       !- Do System Sizing Calculation
  ,                                       !- Do Plant Sizing Calculation
  No,                                     !- Run Simulation for Sizing Periods
  ,                                       !- Run Simulation for Weather File Run Periods
  0.04,                                   !- Loads Convergence Tolerance Value
  ,                                       !- Temperature Convergence Tolerance Value {deltaC}
  ,                                       !- Solar Distribution
  ,                                       !- Maximum Number of Warmup Days
  2;                                      !- Minimum Number of Warmup Days

OS:Sizing:Parameters,
  {dde5af6f-7923-4600-a28a-7556673a0266}, !- Handle
  1.25,                                   !- Heating Sizing Factor
  1.15;                                   !- Cooling Sizing Factor

OS:ProgramControl,
  {05027a99-f2b3-4aeb-afc6-1425fbb4371d}; !- Handle

OS:Timestep,
  {4ebc9f1e-4707-402e-9844-67eb1ffbd522}, !- Handle
  2;                                      !- Number of Timesteps per Hour

OS:OutputControl:ReportingTolerances,
  {65797aa2-06a9-45fe-b69d-bc6e060399d3}; !- Handle

OS:ConvergenceLimits,
  {9fc11aba-8822-4f3d-970c-46391ba4040d}; !- Handle

OS:ShadowCalculation,
  {ca758bea-4416-4626-9bba-3d8795c79bd6}, !- Handle
  7,                                      !- Calculation Frequency
  15000;                                  !- Maximum Figures in Shadow Overlap Calculations

OS:SurfaceConvectionAlgorithm:Inside,
  {aaabfc36-718a-4ab0-b622-f186ebb45230}, !- Handle
  TARP;                                   !- Algorithm

OS:SurfaceConvectionAlgorithm:Outside,
  {9a0a9f6f-4bbd-4b12-a121-9492a1fcd7d6}, !- Handle
  DOE-2;                                  !- Algorithm

OS:HeatBalanceAlgorithm,
  {9d93e563-e1e0-46d7-9e39-d1c8aceb7212}, !- Handle
  ConductionTransferFunction,             !- Algorithm
  200;                                    !- Surface Temperature Upper Limit {F}

OS:ZoneAirHeatBalanceAlgorithm,
  {8520d93e-310f-4696-9bcd-36228bfdd743}, !- Handle
  AnalyticalSolution;                     !- Algorithm

OS:ZoneAirContaminantBalance,
  {eb5fc3ae-fb22-4160-8fcb-3e3b22b000d3}; !- Handle

OS:ZoneCapacitanceMultiplier:ResearchSpecial,
  {4020ce4f-5a7a-4849-8028-8305d7b751b1}, !- Handle
  ,                                       !- Temperature Capacity Multiplier
  ,                                       !- Humidity Capacity Multiplier
  ;                                       !- Carbon Dioxide Capacity Multiplier

OS:RunPeriod,
  {28df894d-6af9-4fb8-8f56-df1753344aa3}, !- Handle
  Run Period 1,                           !- Name
  1,                                      !- Begin Month
  1,                                      !- Begin Day of Month
  12,                                     !- End Month
  31,                                     !- End Day of Month
  ,                                       !- Use Weather File Holidays and Special Days
  ,                                       !- Use Weather File Daylight Saving Period
  ,                                       !- Apply Weekend Holiday Rule
  ,                                       !- Use Weather File Rain Indicators
  ,                                       !- Use Weather File Snow Indicators
  ;                                       !- Number of Times Runperiod to be Repeated

OS:Building,
  {bf305633-c5a1-4881-9edf-ca5e1a8e1274}, !- Handle
  Building 1,                             !- Name
  ,                                       !- Building Sector Type
  ,                                       !- North Axis {deg}
  ,                                       !- Nominal Floor to Floor Height {m}
  ,                                       !- Space Type Name
  ,                                       !- Default Construction Set Name
  {02c560f2-178a-45fe-9253-c4520e78b17e}, !- Default Schedule Set Name
  ,                                       !- Standards Number of Stories
  ,                                       !- Standards Number of Above Ground Stories
  Outpatient;                             !- Standards Building Type

OS:LifeCycleCost:Parameters,
  {231cf8a0-f0e7-4251-a99f-11f0d464e661}, !- Handle
  FEMP,                                   !- Analysis Type
  ,                                       !- Discounting Convention
  ,                                       !- Inflation Approach
  ,                                       !- Real Discount Rate
  ,                                       !- Nominal Discount Rate
  ,                                       !- Inflation
  ,                                       !- Base Date Month
  ,                                       !- Base Date Year
  ,                                       !- Service Date Month
  ,                                       !- Service Date Year
  ,                                       !- Length of Study Period in Years
  ,                                       !- Tax Rate
  ,                                       !- Depreciation Method
  Yes;                                    !- Use NIST Fuel Escalation Rates

OS:Facility,
  {3ba8e45b-b833-44eb-a723-ea6c3946dc96}; !- Handle

OS:SpaceType,
  {c252725f-df80-4615-be1f-b40cd6b0c958}, !- Handle
  Outpatient|BlendCirc|DOE Ref 2004|ASHRAE 169-2006-5A, !- Name
  {97b47b8f-fcd1-4f57-a795-eb3b655de930}, !- Default Construction Set Name
  ,                                       !- Default Schedule Set Name
  {b6627cd0-c5c1-41fa-a1d1-a1726f6a909e}, !- Group Rendering Name
  {0f138c9c-735a-41aa-bd9e-ac7f00c49b9a}, !- Design Specification Outdoor Air Object Name
  Outpatient,                             !- Standards Building Type
  BlendCirc;                              !- Standards Space Type

OS:Rendering:Color,
  {b6627cd0-c5c1-41fa-a1d1-a1726f6a909e}, !- Handle
  Rendering Color 1,                      !- Name
  169,                                    !- Rendering Red Value
  31,                                     !- Rendering Green Value
  31;                                     !- Rendering Blue Value

OS:SpaceType,
  {54908b6e-55b0-41cf-8083-9afdbb67f40f}, !- Handle
  Outpatient|BlendOff|DOE Ref 2004|ASHRAE 169-2006-5A, !- Name
  {97b47b8f-fcd1-4f57-a795-eb3b655de930}, !- Default Construction Set Name
  ,                                       !- Default Schedule Set Name
  {1c48186a-9583-4d97-a3db-47237d294110}, !- Group Rendering Name
  {c46baae5-aa79-428e-bdda-151408b1ca3c}, !- Design Specification Outdoor Air Object Name
  Outpatient,                             !- Standards Building Type
  BlendOff;                               !- Standards Space Type

OS:Rendering:Color,
  {1c48186a-9583-4d97-a3db-47237d294110}, !- Handle
  Rendering Color 2,                      !- Name
  120,                                    !- Rendering Red Value
  230,                                    !- Rendering Green Value
  199;                                    !- Rendering Blue Value

OS:SpaceType,
  {973c1b6c-0375-4313-be28-0fd8deb049f2}, !- Handle
  Outpatient|BlendPat|DOE Ref 2004|ASHRAE 169-2006-5A, !- Name
  {97b47b8f-fcd1-4f57-a795-eb3b655de930}, !- Default Construction Set Name
  ,                                       !- Default Schedule Set Name
  {962524d0-f909-4ab3-8538-55614bea4011}, !- Group Rendering Name
  {48ed1183-d0d6-4209-bdc3-e1ddb16a2aae}, !- Design Specification Outdoor Air Object Name
  Outpatient,                             !- Standards Building Type
  BlendPat;                               !- Standards Space Type

OS:Rendering:Color,
  {962524d0-f909-4ab3-8538-55614bea4011}, !- Handle
  Rendering Color 3,                      !- Name
  136,                                    !- Rendering Red Value
  78,                                     !- Rendering Green Value
  222;                                    !- Rendering Blue Value

OS:SpaceType,
  {c996ccf4-1ba9-4f5a-b4da-5cb726509838}, !- Handle
  Outpatient|BlendImg|DOE Ref 2004|ASHRAE 169-2006-5A, !- Name
  {97b47b8f-fcd1-4f57-a795-eb3b655de930}, !- Default Construction Set Name
  ,                                       !- Default Schedule Set Name
  {0be3fb74-c908-4293-bf66-b1a146dfbf53}, !- Group Rendering Name
  {4591ca16-4ccc-4c7f-a70b-d0de55606e3b}, !- Design Specification Outdoor Air Object Name
  Outpatient,                             !- Standards Building Type
  BlendImg;                               !- Standards Space Type

OS:Rendering:Color,
  {0be3fb74-c908-4293-bf66-b1a146dfbf53}, !- Handle
  Rendering Color 4,                      !- Name
  169,                                    !- Rendering Red Value
  31,                                     !- Rendering Green Value
  159;                                    !- Rendering Blue Value

OS:SpaceType,
  {cc9fe47b-2421-433d-a47a-442fa0e0b3dc}, !- Handle
  Outpatient|BlendMedStg|DOE Ref 2004|ASHRAE 169-2006-5A, !- Name
  {97b47b8f-fcd1-4f57-a795-eb3b655de930}, !- Default Construction Set Name
  ,                                       !- Default Schedule Set Name
  {e4ee75a9-fe55-49a3-a9a0-dcf137772415}, !- Group Rendering Name
  {9a55c177-0a86-4a5d-b78b-0a49ed1dffc4}, !- Design Specification Outdoor Air Object Name
  Outpatient,                             !- Standards Building Type
  BlendMedStg;                            !- Standards Space Type

OS:Rendering:Color,
  {e4ee75a9-fe55-49a3-a9a0-dcf137772415}, !- Handle
  Rendering Color 5,                      !- Name
  204,                                    !- Rendering Red Value
  120,                                    !- Rendering Green Value
  230;                                    !- Rendering Blue Value

OS:SpaceType,
  {56cd22ad-0f92-4461-b573-f3bb33318549}, !- Handle
  Outpatient|BlendMisc|DOE Ref 2004|ASHRAE 169-2006-5A, !- Name
  {97b47b8f-fcd1-4f57-a795-eb3b655de930}, !- Default Construction Set Name
  ,                                       !- Default Schedule Set Name
  {4d27d83a-e1f5-4008-ad0c-1c736c39eeac}, !- Group Rendering Name
  {ef76a305-ae20-45b3-9416-b06fdd7cc5ea}, !- Design Specification Outdoor Air Object Name
  Outpatient,                             !- Standards Building Type
  BlendMisc;                              !- Standards Space Type

OS:Rendering:Color,
  {4d27d83a-e1f5-4008-ad0c-1c736c39eeac}, !- Handle
  Rendering Color 6,                      !- Name
  120,                                    !- Rendering Red Value
  149,                                    !- Rendering Green Value
  230;                                    !- Rendering Blue Value

OS:Schedule:Ruleset,
  {0ee0cdc2-3beb-4a57-9de2-30054e9424ab}, !- Handle
  0400|2200|Outpatient|default|hoo,       !- Name
  {8210de88-d78e-4101-af0f-b64ca97899b9}, !- Schedule Type Limits Name
  {9c521317-ee16-4c35-9159-d3640c810467}, !- Default Day Schedule Name
  {13167363-9e98-4959-b5b0-7d5a321db5d7}, !- Summer Design Day Schedule Name
  {996b39e3-f0a6-416b-8b95-2590d0248ec3}; !- Winter Design Day Schedule Name

OS:Schedule:Day,
  {9c521317-ee16-4c35-9159-d3640c810467}, !- Handle
  0400|2200|Outpatient|default|hoo Schedule Week Day, !- Name
  {8210de88-d78e-4101-af0f-b64ca97899b9}, !- Schedule Type Limits Name
  ,                                       !- Interpolate to Timestep
  4,                                      !- Hour 1
  0,                                      !- Minute 1
  0,                                      !- Value Until Time 1
  22,                                     !- Hour 2
  0,                                      !- Minute 2
  1,                                      !- Value Until Time 2
  24,                                     !- Hour 3
  0,                                      !- Minute 3
  0;                                      !- Value Until Time 3

OS:Schedule:Day,
  {931f14c5-7d19-4213-b3d0-8ea4635994d0}, !- Handle
  Schedule Day 2,                         !- Name
  ,                                       !- Schedule Type Limits Name
  ,                                       !- Interpolate to Timestep
  24,                                     !- Hour 1
  0,                                      !- Minute 1
  0;                                      !- Value Until Time 1

OS:Schedule:Day,
  {996b39e3-f0a6-416b-8b95-2590d0248ec3}, !- Handle
  0400|2200|Outpatient|default|hoo Winter Design Day, !- Name
  {8210de88-d78e-4101-af0f-b64ca97899b9}, !- Schedule Type Limits Name
  ,                                       !- Interpolate to Timestep
  24,                                     !- Hour 1
  0,                                      !- Minute 1
  0;                                      !- Value Until Time 1

OS:Schedule:Day,
  {4e784981-a8b4-422a-8aeb-b586f91245cc}, !- Handle
  Schedule Day 3,                         !- Name
  ,                                       !- Schedule Type Limits Name
  ,                                       !- Interpolate to Timestep
  24,                                     !- Hour 1
  0,                                      !- Minute 1
  0;                                      !- Value Until Time 1

OS:Schedule:Day,
  {13167363-9e98-4959-b5b0-7d5a321db5d7}, !- Handle
  0400|2200|Outpatient|default|hoo Summer Design Day, !- Name
  {8210de88-d78e-4101-af0f-b64ca97899b9}, !- Schedule Type Limits Name
  ,                                       !- Interpolate to Timestep
  24,                                     !- Hour 1
  0,                                      !- Minute 1
  1;                                      !- Value Until Time 1

OS:DefaultScheduleSet,
  {02c560f2-178a-45fe-9253-c4520e78b17e}, !- Handle
  Building Hours of Operation,            !- Name
  {0ee0cdc2-3beb-4a57-9de2-30054e9424ab}, !- Hours of Operation Schedule Name
  ,                                       !- Number of People Schedule Name
  ,                                       !- People Activity Level Schedule Name
  ,                                       !- Lighting Schedule Name
  ,                                       !- Electric Equipment Schedule Name
  ,                                       !- Gas Equipment Schedule Name
  ,                                       !- Hot Water Equipment Schedule Name
  ,                                       !- Infiltration Schedule Name
  ,                                       !- Steam Equipment Schedule Name
  ;                                       !- Other Equipment Schedule Name

OS:ScheduleTypeLimits,
  {8210de88-d78e-4101-af0f-b64ca97899b9}, !- Handle
  OnOff,                                  !- Name
  0,                                      !- Lower Limit Value {BasedOnField A4}
  1,                                      !- Upper Limit Value {BasedOnField A4}
  Discrete,                               !- Numeric Type
  Availability;                           !- Unit Type

OS:Schedule:Ruleset,
  {aa1a648c-dbda-420b-bbc6-7c81991ab362}, !- Handle
  0400|2200|Outpatient|default|work_eff,  !- Name
  {6da680c9-cf04-4145-88f1-2edf131f2242}, !- Schedule Type Limits Name
  {dda42891-7c5f-44b6-9b5d-6f0484b29293}, !- Default Day Schedule Name
  {cc658228-6436-410a-955a-22afc2886867}, !- Summer Design Day Schedule Name
  {8fd86ca5-3260-4f9e-b888-8d8be3df28ce}; !- Winter Design Day Schedule Name

OS:ScheduleTypeLimits,
  {6da680c9-cf04-4145-88f1-2edf131f2242}, !- Handle
  Fraction Schedule Type Limits,          !- Name
  0,                                      !- Lower Limit Value {BasedOnField A4}
  1,                                      !- Upper Limit Value {BasedOnField A4}
  Continuous,                             !- Numeric Type
  Dimensionless;                          !- Unit Type

OS:Schedule:Day,
  {dda42891-7c5f-44b6-9b5d-6f0484b29293}, !- Handle
  0400|2200|Outpatient|default|work_eff |default, !- Name
  {6da680c9-cf04-4145-88f1-2edf131f2242}, !- Schedule Type Limits Name
  ,                                       !- Interpolate to Timestep
  24,                                     !- Hour 1
  0,                                      !- Minute 1
  0;                                      !- Value Until Time 1

OS:Schedule:Day,
  {cc658228-6436-410a-955a-22afc2886867}, !- Handle
  0400|2200|Outpatient|default|work_eff Summer Design Day, !- Name
  {6da680c9-cf04-4145-88f1-2edf131f2242}, !- Schedule Type Limits Name
  ,                                       !- Interpolate to Timestep
  24,                                     !- Hour 1
  0,                                      !- Minute 1
  0;                                      !- Value Until Time 1

OS:Schedule:Day,
  {8fd86ca5-3260-4f9e-b888-8d8be3df28ce}, !- Handle
  0400|2200|Outpatient|default|work_eff Winter Design Day, !- Name
  {6da680c9-cf04-4145-88f1-2edf131f2242}, !- Schedule Type Limits Name
  ,                                       !- Interpolate to Timestep
  24,                                     !- Hour 1
  0,                                      !- Minute 1
  0;                                      !- Value Until Time 1

OS:Schedule:Ruleset,
  {8970c161-363e-41eb-b28e-41e9ac387387}, !- Handle
  0400|2200|Outpatient|default|clg_setpoint, !- Name
  {27cac2d2-fbb6-44c4-8a33-f39a49f13b26}, !- Schedule Type Limits Name
  {6f17b0f6-cdca-426b-adb2-fc1c83871307}, !- Default Day Schedule Name
  {bb09f187-a2f3-4884-8b5d-08a25c15ffa8}, !- Summer Design Day Schedule Name
  {6d4a66b9-7cbd-4d80-8d07-8476d7dadef2}; !- Winter Design Day Schedule Name

OS:ScheduleTypeLimits,
  {27cac2d2-fbb6-44c4-8a33-f39a49f13b26}, !- Handle
  Thermostat Cooling Setpoint Schedule Type Limits, !- Name
  0,                                      !- Lower Limit Value {BasedOnField A4}
  100,                                    !- Upper Limit Value {BasedOnField A4}
  Continuous,                             !- Numeric Type
  Temperature;                            !- Unit Type

OS:Schedule:Day,
  {6f17b0f6-cdca-426b-adb2-fc1c83871307}, !- Handle
  0400|2200|Outpatient|default|clg_setpoint |default, !- Name
  {27cac2d2-fbb6-44c4-8a33-f39a49f13b26}, !- Schedule Type Limits Name
  ,                                       !- Interpolate to Timestep
  24,                                     !- Hour 1
  0,                                      !- Minute 1
  22.2;                                   !- Value Until Time 1

OS:Schedule:Day,
  {bb09f187-a2f3-4884-8b5d-08a25c15ffa8}, !- Handle
  0400|2200|Outpatient|default|clg_setpoint Summer Design Day, !- Name
  {27cac2d2-fbb6-44c4-8a33-f39a49f13b26}, !- Schedule Type Limits Name
  ,                                       !- Interpolate to Timestep
  24,                                     !- Hour 1
  0,                                      !- Minute 1
  22.2;                                   !- Value Until Time 1

OS:Schedule:Day,
  {6d4a66b9-7cbd-4d80-8d07-8476d7dadef2}, !- Handle
  0400|2200|Outpatient|default|clg_setpoint Winter Design Day, !- Name
  {27cac2d2-fbb6-44c4-8a33-f39a49f13b26}, !- Schedule Type Limits Name
  ,                                       !- Interpolate to Timestep
  24,                                     !- Hour 1
  0,                                      !- Minute 1
  22.2;                                   !- Value Until Time 1

OS:Schedule:Rule,
  {ee5f2f33-e58d-4e8b-a066-736d8a4ec69e}, !- Handle
  0400|2200|Outpatient|default|clg_setpoint |1/1-12/31|Sat/Sun Rule, !- Name
  {8970c161-363e-41eb-b28e-41e9ac387387}, !- Schedule Ruleset Name
  0,                                      !- Rule Order
  {2295b94f-a67b-4fb0-9069-710690a67641}, !- Day Schedule Name
  Yes,                                    !- Apply Sunday
  ,                                       !- Apply Monday
  ,                                       !- Apply Tuesday
  ,                                       !- Apply Wednesday
  ,                                       !- Apply Thursday
  ,                                       !- Apply Friday
  Yes,                                    !- Apply Saturday
  ,                                       !- Apply Holiday
  DateRange,                              !- Date Specification Type
  1,                                      !- Start Month
  1,                                      !- Start Day
  12,                                     !- End Month
  31;                                     !- End Day

OS:Schedule:Day,
  {2295b94f-a67b-4fb0-9069-710690a67641}, !- Handle
  0400|2200|Outpatient|default|clg_setpoint |1/1-12/31|Sat/Sun, !- Name
  {27cac2d2-fbb6-44c4-8a33-f39a49f13b26}, !- Schedule Type Limits Name
  ,                                       !- Interpolate to Timestep
  24,                                     !- Hour 1
  0,                                      !- Minute 1
  25.0000000000001;                       !- Value Until Time 1

OS:Schedule:Ruleset,
  {50bb493c-041b-4094-a81f-64ed7e7c19c3}, !- Handle
  0400|2200|Outpatient|default|hvac,      !- Name
  {357932f1-8667-4be8-85eb-b4374b6e8f8f}, !- Schedule Type Limits Name
  {bcac35b7-156d-45aa-a8dc-aa2ce91b83fa}, !- Default Day Schedule Name
  {c1e886c5-fcc4-49af-aa6c-ef480310a914}, !- Summer Design Day Schedule Name
  {278a7b29-e8ee-4227-9fff-f1da9ed0c31a}; !- Winter Design Day Schedule Name

OS:ScheduleTypeLimits,
  {357932f1-8667-4be8-85eb-b4374b6e8f8f}, !- Handle
  HVAC Operation Schedule Type Limits,    !- Name
  0,                                      !- Lower Limit Value {BasedOnField A4}
  1,                                      !- Upper Limit Value {BasedOnField A4}
  Discrete,                               !- Numeric Type
  Availability;                           !- Unit Type

OS:Schedule:Day,
  {bcac35b7-156d-45aa-a8dc-aa2ce91b83fa}, !- Handle
  0400|2200|Outpatient|default|hvac |default, !- Name
  {357932f1-8667-4be8-85eb-b4374b6e8f8f}, !- Schedule Type Limits Name
  ,                                       !- Interpolate to Timestep
  24,                                     !- Hour 1
  0,                                      !- Minute 1
  1;                                      !- Value Until Time 1

OS:Schedule:Day,
  {c1e886c5-fcc4-49af-aa6c-ef480310a914}, !- Handle
  0400|2200|Outpatient|default|hvac Summer Design Day, !- Name
  {357932f1-8667-4be8-85eb-b4374b6e8f8f}, !- Schedule Type Limits Name
  ,                                       !- Interpolate to Timestep
  24,                                     !- Hour 1
  0,                                      !- Minute 1
  1;                                      !- Value Until Time 1

OS:Schedule:Day,
  {278a7b29-e8ee-4227-9fff-f1da9ed0c31a}, !- Handle
  0400|2200|Outpatient|default|hvac Winter Design Day, !- Name
  {357932f1-8667-4be8-85eb-b4374b6e8f8f}, !- Schedule Type Limits Name
  ,                                       !- Interpolate to Timestep
  24,                                     !- Hour 1
  0,                                      !- Minute 1
  1;                                      !- Value Until Time 1

OS:Schedule:Ruleset,
  {98235c18-e350-4759-b38a-66836b1a036e}, !- Handle
  0400|2200|Outpatient|default|air_velocity, !- Name
  {fbc69f31-aa5f-4289-ad5d-dd84b22794c1}, !- Schedule Type Limits Name
  {62071db1-de3e-4ee7-80d3-20c6bbdf6bc4}, !- Default Day Schedule Name
  {19cf0855-9801-48a0-ab69-e7d10592cd65}, !- Summer Design Day Schedule Name
  {963f8560-c9d7-4766-a2af-9a95769692e9}; !- Winter Design Day Schedule Name

OS:ScheduleTypeLimits,
  {fbc69f31-aa5f-4289-ad5d-dd84b22794c1}, !- Handle
  Dimensionless Schedule Type Limits,     !- Name
  ,                                       !- Lower Limit Value {BasedOnField A4}
  ,                                       !- Upper Limit Value {BasedOnField A4}
  Continuous,                             !- Numeric Type
  Dimensionless;                          !- Unit Type

OS:Schedule:Day,
  {62071db1-de3e-4ee7-80d3-20c6bbdf6bc4}, !- Handle
  0400|2200|Outpatient|default|air_velocity |default, !- Name
  {fbc69f31-aa5f-4289-ad5d-dd84b22794c1}, !- Schedule Type Limits Name
  ,                                       !- Interpolate to Timestep
  24,                                     !- Hour 1
  0,                                      !- Minute 1
  0.200152;                               !- Value Until Time 1

OS:Schedule:Day,
  {19cf0855-9801-48a0-ab69-e7d10592cd65}, !- Handle
  0400|2200|Outpatient|default|air_velocity Summer Design Day, !- Name
  {fbc69f31-aa5f-4289-ad5d-dd84b22794c1}, !- Schedule Type Limits Name
  ,                                       !- Interpolate to Timestep
  24,                                     !- Hour 1
  0,                                      !- Minute 1
  0.200152;                               !- Value Until Time 1

OS:Schedule:Day,
  {963f8560-c9d7-4766-a2af-9a95769692e9}, !- Handle
  0400|2200|Outpatient|default|air_velocity Winter Design Day, !- Name
  {fbc69f31-aa5f-4289-ad5d-dd84b22794c1}, !- Schedule Type Limits Name
  ,                                       !- Interpolate to Timestep
  24,                                     !- Hour 1
  0,                                      !- Minute 1
  0.200152;                               !- Value Until Time 1

OS:Schedule:Ruleset,
  {0db6b73d-4dc1-43cf-82b7-6213c4cb4041}, !- Handle
  0400|2200|Outpatient|default|elec_equip, !- Name
  {e0aadd51-f3bc-4311-b464-5a719e23f815}, !- Schedule Type Limits Name
  {7a2b25f4-9559-425d-a256-1c47cf402133}, !- Default Day Schedule Name
  {d7268a2e-6758-498b-83ba-ea9c5ad0cc70}, !- Summer Design Day Schedule Name
  {208da4c5-8f91-410d-89f2-927824ea7743}; !- Winter Design Day Schedule Name

OS:ScheduleTypeLimits,
  {e0aadd51-f3bc-4311-b464-5a719e23f815}, !- Handle
  Equipment Schedule Type Limits,         !- Name
  0,                                      !- Lower Limit Value {BasedOnField A4}
  1,                                      !- Upper Limit Value {BasedOnField A4}
  Continuous,                             !- Numeric Type
  Dimensionless;                          !- Unit Type

OS:Schedule:Day,
  {7a2b25f4-9559-425d-a256-1c47cf402133}, !- Handle
  0400|2200|Outpatient|default|elec_equip |default, !- Name
  {e0aadd51-f3bc-4311-b464-5a719e23f815}, !- Schedule Type Limits Name
  ,                                       !- Interpolate to Timestep
  4,                                      !- Hour 1
  0,                                      !- Minute 1
  0.3,                                    !- Value Until Time 1
  6,                                      !- Hour 2
  0,                                      !- Minute 2
  0.5,                                    !- Value Until Time 2
  18,                                     !- Hour 3
  0,                                      !- Minute 3
  1,                                      !- Value Until Time 3
  20,                                     !- Hour 4
  0,                                      !- Minute 4
  0.5,                                    !- Value Until Time 4
  24,                                     !- Hour 5
  0,                                      !- Minute 5
  0.3;                                    !- Value Until Time 5

OS:Schedule:Day,
  {d7268a2e-6758-498b-83ba-ea9c5ad0cc70}, !- Handle
  0400|2200|Outpatient|default|elec_equip Summer Design Day, !- Name
  {e0aadd51-f3bc-4311-b464-5a719e23f815}, !- Schedule Type Limits Name
  ,                                       !- Interpolate to Timestep
  24,                                     !- Hour 1
  0,                                      !- Minute 1
  1;                                      !- Value Until Time 1

OS:Schedule:Day,
  {208da4c5-8f91-410d-89f2-927824ea7743}, !- Handle
  0400|2200|Outpatient|default|elec_equip Winter Design Day, !- Name
  {e0aadd51-f3bc-4311-b464-5a719e23f815}, !- Schedule Type Limits Name
  ,                                       !- Interpolate to Timestep
  24,                                     !- Hour 1
  0,                                      !- Minute 1
  0.3;                                    !- Value Until Time 1

OS:Schedule:Rule,
  {e087154a-f792-4213-9345-cd18bd5fdda4}, !- Handle