
OS:Version,
  {ccb40548-9fe6-41fd-8153-bf2f9f5153be}, !- Handle
  1.6.0;                                  !- Version Identifier

OS:ClimateZones,
  {135edfab-17e7-40db-a436-27d385a8cd6d}, !- Handle
  ,                                       !- Active Institution
  ,                                       !- Active Year
  ASHRAE,                                 !- Climate Zone Institution Name 1
  ANSI/ASHRAE Standard 169,               !- Climate Zone Document Name 1
  2006,                                   !- Climate Zone Document Year 1
  ,                                       !- Climate Zone Value 1
  CEC,                                    !- Climate Zone Institution Name 2
  California Climate Zone Descriptions,   !- Climate Zone Document Name 2
  1995,                                   !- Climate Zone Document Year 2
  ;                                       !- Climate Zone Value 2

OS:YearDescription,
  {513d8dda-86cb-442a-b01c-1f7f0e0ac70e}; !- Handle

OS:RadianceParameters,
  {270a96f1-3c86-4b75-a667-cdf22790e2c8}, !- Handle
  1,                                      !- Accumulated Rays per Record
  0,                                      !- Direct Threshold
  1,                                      !- Direct Certainty
  1,                                      !- Direct Jitter
  1,                                      !- Direct Pretest
  6,                                      !- Ambient Bounces VMX
  2,                                      !- Ambient Bounces DMX
  4050,                                   !- Ambient Divisions VMX
  512,                                    !- Ambient Divisions DMX
  256,                                    !- Ambient Supersamples
  0.001,                                  !- Limit Weight VMX
  0.001,                                  !- Limit Weight DMX
  500,                                    !- Klems Sampling Density
  146;                                    !- Sky Discretization Resolution

OS:SimulationControl,
  {2c487a4c-bac9-4ac5-b669-1e49d9da7c2b}, !- Handle
  ,                                       !- Do Zone Sizing Calculation
  ,                                       !- Do System Sizing Calculation
  ,                                       !- Do Plant Sizing Calculation
  No,                                     !- Run Simulation for Sizing Periods
  ,                                       !- Run Simulation for Weather File Run Periods
  0.04,                                   !- Loads Convergence Tolerance Value
  ,                                       !- Temperature Convergence Tolerance Value {deltaC}
  ,                                       !- Solar Distribution
  ,                                       !- Maximum Number of Warmup Days
  2;                                      !- Minimum Number of Warmup Days

OS:Sizing:Parameters,
  {dde5af6f-7923-4600-a28a-7556673a0266}, !- Handle
  1.25,                                   !- Heating Sizing Factor
  1.15;                                   !- Cooling Sizing Factor

OS:ProgramControl,
  {05027a99-f2b3-4aeb-afc6-1425fbb4371d}; !- Handle

OS:Timestep,
  {4ebc9f1e-4707-402e-9844-67eb1ffbd522}, !- Handle
  2;                                      !- Number of Timesteps per Hour

OS:OutputControl:ReportingTolerances,
  {65797aa2-06a9-45fe-b69d-bc6e060399d3}; !- Handle

OS:ConvergenceLimits,
  {9fc11aba-8822-4f3d-970c-46391ba4040d}; !- Handle

OS:ShadowCalculation,
  {ca758bea-4416-4626-9bba-3d8795c79bd6}, !- Handle
  7,                                      !- Calculation Frequency
  15000;                                  !- Maximum Figures in Shadow Overlap Calculations

OS:SurfaceConvectionAlgorithm:Inside,
  {aaabfc36-718a-4ab0-b622-f186ebb45230}, !- Handle
  TARP;                                   !- Algorithm

OS:SurfaceConvectionAlgorithm:Outside,
  {9a0a9f6f-4bbd-4b12-a121-9492a1fcd7d6}, !- Handle
  DOE-2;                                  !- Algorithm

OS:HeatBalanceAlgorithm,
  {9d93e563-e1e0-46d7-9e39-d1c8aceb7212}, !- Handle
  ConductionTransferFunction,             !- Algorithm
  200;                                    !- Surface Temperature Upper Limit {F}

OS:ZoneAirHeatBalanceAlgorithm,
  {8520d93e-310f-4696-9bcd-36228bfdd743}, !- Handle
  AnalyticalSolution;                     !- Algorithm

OS:ZoneAirContaminantBalance,
  {eb5fc3ae-fb22-4160-8fcb-3e3b22b000d3}; !- Handle

OS:ZoneCapacitanceMultiplier:ResearchSpecial,
  {4020ce4f-5a7a-4849-8028-8305d7b751b1}, !- Handle
  ,                                       !- Temperature Capacity Multiplier
  ,                                       !- Humidity Capacity Multiplier
  ;                                       !- Carbon Dioxide Capacity Multiplier

OS:RunPeriod,
  {28df894d-6af9-4fb8-8f56-df1753344aa3}, !- Handle
  Run Period 1,                           !- Name
  1,                                      !- Begin Month
  1,                                      !- Begin Day of Month
  12,                                     !- End Month
  31,                                     !- End Day of Month
  ,                                       !- Use Weather File Holidays and Special Days
  ,                                       !- Use Weather File Daylight Saving Period
  ,                                       !- Apply Weekend Holiday Rule
  ,                                       !- Use Weather File Rain Indicators
  ,                                       !- Use Weather File Snow Indicators
  ;                                       !- Number of Times Runperiod to be Repeated

OS:Building,
  {bf305633-c5a1-4881-9edf-ca5e1a8e1274}, !- Handle
  Building 1,                             !- Name
  ,                                       !- Building Sector Type
  ,                                       !- North Axis {deg}
  ,                                       !- Nominal Floor to Floor Height {m}
  ,                                       !- Space Type Name
  ,                                       !- Default Construction Set Name
  {869179eb-949b-4e02-a025-51d8675ab9ac}, !- Default Schedule Set Name
  ,                                       !- Standards Number of Stories
  ,                                       !- Standards Number of Above Ground Stories
  Outpatient;                             !- Standards Building Type

OS:LifeCycleCost:Parameters,
  {231cf8a0-f0e7-4251-a99f-11f0d464e661}, !- Handle
  FEMP,                                   !- Analysis Type
  ,                                       !- Discounting Convention
  ,                                       !- Inflation Approach
  ,                                       !- Real Discount Rate
  ,                                       !- Nominal Discount Rate
  ,                                       !- Inflation
  ,                                       !- Base Date Month
  ,                                       !- Base Date Year
  ,                                       !- Service Date Month
  ,                                       !- Service Date Year
  ,                                       !- Length of Study Period in Years
  ,                                       !- Tax Rate
  ,                                       !- Depreciation Method
  Yes;                                    !- Use NIST Fuel Escalation Rates

OS:Facility,
  {3ba8e45b-b833-44eb-a723-ea6c3946dc96}; !- Handle

OS:SpaceType,
  {5b03f3cd-7849-4288-b960-3aaef3cd60d4}, !- Handle
  Outpatient|BlendCirc|DOE Ref 2004|ASHRAE 169-2006-5A, !- Name
  {2ff51e31-fa4c-4349-91be-583c38a72467}, !- Default Construction Set Name
  ,                                       !- Default Schedule Set Name
  {d990bae7-80e5-4b7a-a6de-8656c9ea262d}, !- Group Rendering Name
  {ca58dc94-dcb6-45c5-a2d7-6f5f2b6465e5}, !- Design Specification Outdoor Air Object Name
  Outpatient,                             !- Standards Building Type
  BlendCirc;                              !- Standards Space Type

OS:Rendering:Color,
  {d990bae7-80e5-4b7a-a6de-8656c9ea262d}, !- Handle
  Rendering Color 1,                      !- Name
  169,                                    !- Rendering Red Value
  31,                                     !- Rendering Green Value
  31;                                     !- Rendering Blue Value

OS:SpaceType,
  {08e35261-9bf4-4263-af0e-9a49586a288c}, !- Handle
  Outpatient|BlendOff|DOE Ref 2004|ASHRAE 169-2006-5A, !- Name
  {2ff51e31-fa4c-4349-91be-583c38a72467}, !- Default Construction Set Name
  ,                                       !- Default Schedule Set Name
  {9c82756e-0226-4cdd-9f65-f92f1620f9af}, !- Group Rendering Name
  {d4b98db0-1900-494a-a365-e0f130156f7f}, !- Design Specification Outdoor Air Object Name
  Outpatient,                             !- Standards Building Type
  BlendOff;                               !- Standards Space Type

OS:Rendering:Color,
  {9c82756e-0226-4cdd-9f65-f92f1620f9af}, !- Handle
  Rendering Color 2,                      !- Name
  120,                                    !- Rendering Red Value
  230,                                    !- Rendering Green Value
  199;                                    !- Rendering Blue Value

OS:SpaceType,
  {fa2a6aac-65cc-4e32-a0a7-4dfc71d21405}, !- Handle
  Outpatient|BlendPat|DOE Ref 2004|ASHRAE 169-2006-5A, !- Name
  {2ff51e31-fa4c-4349-91be-583c38a72467}, !- Default Construction Set Name
  ,                                       !- Default Schedule Set Name
  {906069c4-b5bd-40e6-b649-a951d3fc1a1b}, !- Group Rendering Name
  {e23d47a5-ee49-4dfe-b08c-6384fc25cf91}, !- Design Specification Outdoor Air Object Name
  Outpatient,                             !- Standards Building Type
  BlendPat;                               !- Standards Space Type

OS:Rendering:Color,
  {906069c4-b5bd-40e6-b649-a951d3fc1a1b}, !- Handle
  Rendering Color 3,                      !- Name
  136,                                    !- Rendering Red Value
  78,                                     !- Rendering Green Value
  222;                                    !- Rendering Blue Value

OS:SpaceType,
  {1cf65dd0-2b72-4ad9-b2d8-1052c9b9ef5f}, !- Handle
  Outpatient|BlendImg|DOE Ref 2004|ASHRAE 169-2006-5A, !- Name
  {2ff51e31-fa4c-4349-91be-583c38a72467}, !- Default Construction Set Name
  ,                                       !- Default Schedule Set Name
  {b36ee9eb-8d80-400f-af0d-b086f36ef828}, !- Group Rendering Name
  {dc7d41d8-2895-4028-a9f2-b7062dc094de}, !- Design Specification Outdoor Air Object Name
  Outpatient,                             !- Standards Building Type
  BlendImg;                               !- Standards Space Type

OS:Rendering:Color,
  {b36ee9eb-8d80-400f-af0d-b086f36ef828}, !- Handle
  Rendering Color 4,                      !- Name
  169,                                    !- Rendering Red Value
  31,                                     !- Rendering Green Value
  159;                                    !- Rendering Blue Value

OS:SpaceType,
  {4bd50b78-2269-4555-8dec-e57fe7a76b0f}, !- Handle
  Outpatient|BlendMedStg|DOE Ref 2004|ASHRAE 169-2006-5A, !- Name
  {2ff51e31-fa4c-4349-91be-583c38a72467}, !- Default Construction Set Name
  ,                                       !- Default Schedule Set Name
  {7c3327e8-6cbe-42b4-bd89-8c5860de4fc2}, !- Group Rendering Name
  {936bda35-b954-4998-8e40-7f655eed809c}, !- Design Specification Outdoor Air Object Name
  Outpatient,                             !- Standards Building Type
  BlendMedStg;                            !- Standards Space Type

OS:Rendering:Color,
  {7c3327e8-6cbe-42b4-bd89-8c5860de4fc2}, !- Handle
  Rendering Color 5,                      !- Name
  204,                                    !- Rendering Red Value
  120,                                    !- Rendering Green Value
  230;                                    !- Rendering Blue Value

OS:SpaceType,
  {1fa10c34-5ce6-46f8-b09b-1391b51eade6}, !- Handle
  Outpatient|BlendMisc|DOE Ref 2004|ASHRAE 169-2006-5A, !- Name
  {2ff51e31-fa4c-4349-91be-583c38a72467}, !- Default Construction Set Name
  ,                                       !- Default Schedule Set Name
  {2882f068-8966-4b9a-9912-5600b8a49732}, !- Group Rendering Name
  {5c6a66d8-398d-4348-93ea-797d0a4cafd8}, !- Design Specification Outdoor Air Object Name
  Outpatient,                             !- Standards Building Type
  BlendMisc;                              !- Standards Space Type

OS:Rendering:Color,
  {2882f068-8966-4b9a-9912-5600b8a49732}, !- Handle
  Rendering Color 6,                      !- Name
  120,                                    !- Rendering Red Value
  149,                                    !- Rendering Green Value
  230;                                    !- Rendering Blue Value

OS:Schedule:Ruleset,
  {db7edbc4-3d88-47ac-96e8-992b694c34ef}, !- Handle
  0400|2200|Outpatient|default|hoo,       !- Name
  {e3a6c5b7-f0fb-493f-b4d3-1ca243f1dad9}, !- Schedule Type Limits Name
  {b2575e91-95c3-4163-a743-d92b145d5357}, !- Default Day Schedule Name
  {ff62778d-2d6e-47e0-8050-ba76853f92cb}, !- Summer Design Day Schedule Name
  {141fef44-6687-47bb-b63c-3eed549e4af4}; !- Winter Design Day Schedule Name

OS:Schedule:Day,
  {b2575e91-95c3-4163-a743-d92b145d5357}, !- Handle
  0400|2200|Outpatient|default|hoo Schedule Week Day, !- Name
  {e3a6c5b7-f0fb-493f-b4d3-1ca243f1dad9}, !- Schedule Type Limits Name
  ,                                       !- Interpolate to Timestep
  4,                                      !- Hour 1
  0,                                      !- Minute 1
  0,                                      !- Value Until Time 1
  22,                                     !- Hour 2
  0,                                      !- Minute 2
  1,                                      !- Value Until Time 2
  24,                                     !- Hour 3
  0,                                      !- Minute 3
  0;                                      !- Value Until Time 3

OS:Schedule:Day,
  {0dc3ef1d-fbad-43a5-951b-b3e3f605bf48}, !- Handle
  Schedule Day 2,                         !- Name
  ,                                       !- Schedule Type Limits Name
  ,                                       !- Interpolate to Timestep
  24,                                     !- Hour 1
  0,                                      !- Minute 1
  0;                                      !- Value Until Time 1

OS:Schedule:Day,
  {141fef44-6687-47bb-b63c-3eed549e4af4}, !- Handle
  0400|2200|Outpatient|default|hoo Winter Design Day, !- Name
  {e3a6c5b7-f0fb-493f-b4d3-1ca243f1dad9}, !- Schedule Type Limits Name
  ,                                       !- Interpolate to Timestep
  24,                                     !- Hour 1
  0,                                      !- Minute 1
  0;                                      !- Value Until Time 1

OS:Schedule:Day,
  {ead107bf-db79-4309-8161-73a31755f7fc}, !- Handle
  Schedule Day 3,                         !- Name
  ,                                       !- Schedule Type Limits Name
  ,                                       !- Interpolate to Timestep
  24,                                     !- Hour 1
  0,                                      !- Minute 1
  0;                                      !- Value Until Time 1

OS:Schedule:Day,
  {ff62778d-2d6e-47e0-8050-ba76853f92cb}, !- Handle
  0400|2200|Outpatient|default|hoo Summer Design Day, !- Name
  {e3a6c5b7-f0fb-493f-b4d3-1ca243f1dad9}, !- Schedule Type Limits Name
  ,                                       !- Interpolate to Timestep
  24,                                     !- Hour 1
  0,                                      !- Minute 1
  1;                                      !- Value Until Time 1

OS:DefaultScheduleSet,
  {869179eb-949b-4e02-a025-51d8675ab9ac}, !- Handle
  Building Hours of Operation,            !- Name
  {db7edbc4-3d88-47ac-96e8-992b694c34ef}, !- Hours of Operation Schedule Name
  ,                                       !- Number of People Schedule Name
  ,                                       !- People Activity Level Schedule Name
  ,                                       !- Lighting Schedule Name
  ,                                       !- Electric Equipment Schedule Name
  ,                                       !- Gas Equipment Schedule Name
  ,                                       !- Hot Water Equipment Schedule Name
  ,                                       !- Infiltration Schedule Name
  ,                                       !- Steam Equipment Schedule Name
  ;                                       !- Other Equipment Schedule Name

OS:ScheduleTypeLimits,
  {e3a6c5b7-f0fb-493f-b4d3-1ca243f1dad9}, !- Handle
  OnOff,                                  !- Name
  0,                                      !- Lower Limit Value {BasedOnField A4}
  1,                                      !- Upper Limit Value {BasedOnField A4}
  Discrete,                               !- Numeric Type
  Availability;                           !- Unit Type

OS:Schedule:Ruleset,
  {8ab7dfb9-e2c6-4208-8f2a-54375137851d}, !- Handle
  0400|2200|Outpatient|default|gas_equip, !- Name
  {a8b8ea29-e4af-4db5-bd49-4bc288b8129b}, !- Schedule Type Limits Name
  {13c0ab12-d074-48f2-8734-df333751cf83}, !- Default Day Schedule Name
  {33eba6ef-4e76-4836-9856-7f1497f40fce}, !- Summer Design Day Schedule Name
  {c8afed92-caa0-4017-9c1c-353b7e542c1f}; !- Winter Design Day Schedule Name

OS:ScheduleTypeLimits,
  {a8b8ea29-e4af-4db5-bd49-4bc288b8129b}, !- Handle
  Equipment Schedule Type Limits,         !- Name
  0,                                      !- Lower Limit Value {BasedOnField A4}
  1,                                      !- Upper Limit Value {BasedOnField A4}
  Continuous,                             !- Numeric Type
  Dimensionless;                          !- Unit Type

OS:Schedule:Day,
  {13c0ab12-d074-48f2-8734-df333751cf83}, !- Handle
  0400|2200|Outpatient|default|gas_equip |default, !- Name
  {a8b8ea29-e4af-4db5-bd49-4bc288b8129b}, !- Schedule Type Limits Name
  ,                                       !- Interpolate to Timestep
  4,                                      !- Hour 1
  0,                                      !- Minute 1
  0.3,                                    !- Value Until Time 1
  6,                                      !- Hour 2
  0,                                      !- Minute 2
  0.5,                                    !- Value Until Time 2
  18,                                     !- Hour 3
  0,                                      !- Minute 3
  1,                                      !- Value Until Time 3
  20,                                     !- Hour 4
  0,                                      !- Minute 4
  0.5,                                    !- Value Until Time 4
  24,                                     !- Hour 5
  0,                                      !- Minute 5
  0.3;                                    !- Value Until Time 5

OS:Schedule:Day,
  {33eba6ef-4e76-4836-9856-7f1497f40fce}, !- Handle
  0400|2200|Outpatient|default|gas_equip Summer Design Day, !- Name
  {a8b8ea29-e4af-4db5-bd49-4bc288b8129b}, !- Schedule Type Limits Name
  ,                                       !- Interpolate to Timestep
  24,                                     !- Hour 1
  0,                                      !- Minute 1
  1;                                      !- Value Until Time 1

OS:Schedule:Day,
  {c8afed92-caa0-4017-9c1c-353b7e542c1f}, !- Handle
  0400|2200|Outpatient|default|gas_equip Winter Design Day, !- Name
  {a8b8ea29-e4af-4db5-bd49-4bc288b8129b}, !- Schedule Type Limits Name
  ,                                       !- Interpolate to Timestep
  24,                                     !- Hour 1
  0,                                      !- Minute 1
  0.3;                                    !- Value Until Time 1

OS:Schedule:Rule,
  {c9ea6cd1-5207-475f-aab1-9eaeed744093}, !- Handle
  0400|2200|Outpatient|default|gas_equip |1/1-12/31|Sat Rule, !- Name
  {8ab7dfb9-e2c6-4208-8f2a-54375137851d}, !- Schedule Ruleset Name
  0,                                      !- Rule Order
  {a8e00e9f-4bf3-4f10-94d4-889bde0c748e}, !- Day Schedule Name
  ,                                       !- Apply Sunday
  ,                                       !- Apply Monday
  ,                                       !- Apply Tuesday
  ,                                       !- Apply Wednesday
  ,                                       !- Apply Thursday
  ,                                       !- Apply Friday
  Yes,                                    !- Apply Saturday
  ,                                       !- Apply Holiday
  DateRange,                              !- Date Specification Type
  1,                                      !- Start Month
  1,                                      !- Start Day
  12,                                     !- End Month
  31;                                     !- End Day

OS:Schedule:Day,
  {a8e00e9f-4bf3-4f10-94d4-889bde0c748e}, !- Handle
  0400|2200|Outpatient|default|gas_equip |1/1-12/31|Sat, !- Name
  {a8b8ea29-e4af-4db5-bd49-4bc288b8129b}, !- Schedule Type Limits Name
  ,                                       !- Interpolate to Timestep
  7,                                      !- Hour 1
  0,                                      !- Minute 1
  0.3,                                    !- Value Until Time 1
  9,                                      !- Hour 2
  0,                                      !- Minute 2
  0.5,                                    !- Value Until Time 2
  15,                                     !- Hour 3
  0,                                      !- Minute 3
  0.8,                                    !- Value Until Time 3
  20,                                     !- Hour 4
  0,                                      !- Minute 4
  0.5,                                    !- Value Until Time 4
  24,                                     !- Hour 5
  0,                                      !- Minute 5
  0.3;                                    !- Value Until Time 5

OS:Schedule:Rule,
  {84990270-b8ed-4972-9452-e99465bbc5dd}, !- Handle
  0400|2200|Outpatient|default|gas_equip |1/1-12/31|Sun Rule, !- Name
  {8ab7dfb9-e2c6-4208-8f2a-54375137851d}, !- Schedule Ruleset Name
  1,                                      !- Rule Order
  {b81c94fb-1da4-440b-b7c8-4eae71315617}, !- Day Schedule Name
  Yes,                                    !- Apply Sunday
  ,                                       !- Apply Monday
  ,                                       !- Apply Tuesday
  ,                                       !- Apply Wednesday
  ,                                       !- Apply Thursday
  ,                                       !- Apply Friday
  ,                                       !- Apply Saturday
  ,                                       !- Apply Holiday
  DateRange,                              !- Date Specification Type
  1,                                      !- Start Month
  1,                                      !- Start Day
  12,                                     !- End Month
  31;                                     !- End Day

OS:Schedule:Day,
  {b81c94fb-1da4-440b-b7c8-4eae71315617}, !- Handle
  0400|2200|Outpatient|default|gas_equip |1/1-12/31|Sun, !- Name
  {a8b8ea29-e4af-4db5-bd49-4bc288b8129b}, !- Schedule Type Limits Name
  ,                                       !- Interpolate to Timestep
  8,                                      !- Hour 1
  0,                                      !- Minute 1
  0.3,                                    !- Value Until Time 1
  17,                                     !- Hour 2
  0,                                      !- Minute 2
  0.5,                                    !- Value Until Time 2
  24,                                     !- Hour 3
  0,                                      !- Minute 3
  0.3;                                    !- Value Until Time 3

OS:Schedule:Ruleset,
  {c249373e-48e6-46ba-b5d7-83e120c01063}, !- Handle
  0400|2200|Outpatient|default|htg_setpoint, !- Name
  {3588399b-8bbc-452d-b45f-e1e54f7e8ed6}, !- Schedule Type Limits Name
  {bb41849a-fd80-4ed1-9dcf-10c4adb66e4a}, !- Default Day Schedule Name
  {7893b9e2-1ca5-471a-84f8-05a0e295f68e}, !- Summer Design Day Schedule Name
  {8e775d7d-96f3-4de6-bc6b-d90764f3963c}; !- Winter Design Day Schedule Name

OS:ScheduleTypeLimits,
  {3588399b-8bbc-452d-b45f-e1e54f7e8ed6}, !- Handle
  Thermostat Heating Setpoint Schedule Type Limits, !- Name
  0,                                      !- Lower Limit Value {BasedOnField A4}
  100,                                    !- Upper Limit Value {BasedOnField A4}
  Continuous,                             !- Numeric Type
  Temperature;                            !- Unit Type

OS:Schedule:Day,
  {bb41849a-fd80-4ed1-9dcf-10c4adb66e4a}, !- Handle
  0400|2200|Outpatient|default|htg_setpoint |default, !- Name
  {3588399b-8bbc-452d-b45f-e1e54f7e8ed6}, !- Schedule Type Limits Name
  ,                                       !- Interpolate to Timestep
  24,                                     !- Hour 1
  0,                                      !- Minute 1
  21.1;                                   !- Value Until Time 1

OS:Schedule:Day,
  {7893b9e2-1ca5-471a-84f8-05a0e295f68e}, !- Handle
  0400|2200|Outpatient|default|htg_setpoint Summer Design Day, !- Name
  {3588399b-8bbc-452d-b45f-e1e54f7e8ed6}, !- Schedule Type Limits Name
  ,                                       !- Interpolate to Timestep
  24,                                     !- Hour 1
  0,                                      !- Minute 1
  21.1;                                   !- Value Until Time 1

OS:Schedule:Day,
  {8e775d7d-96f3-4de6-bc6b-d90764f3963c}, !- Handle
  0400|2200|Outpatient|default|htg_setpoint Winter Design Day, !- Name
  {3588399b-8bbc-452d-b45f-e1e54f7e8ed6}, !- Schedule Type Limits Name
  ,                                       !- Interpolate to Timestep
  24,                                     !- Hour 1
  0,                                      !- Minute 1
  21.1;                                   !- Value Until Time 1

OS:Schedule:Rule,
  {3946f888-1b93-406a-bc14-1c42f36cff86}, !- Handle
  0400|2200|Outpatient|default|htg_setpoint |1/1-12/31|Sat/Sun Rule, !- Name
  {c249373e-48e6-46ba-b5d7-83e120c01063}, !- Schedule Ruleset Name
  0,                                      !- Rule Order
  {3da627cd-d04c-46b9-ad96-7ef8584a65e0}, !- Day Schedule Name
  Yes,                                    !- Apply Sunday
  ,                                       !- Apply Monday
  ,                                       !- Apply Tuesday
  ,                                       !- Apply Wednesday
  ,                                       !- Apply Thursday
  ,                                       !- Apply Friday
  Yes,                                    !- Apply Saturday
  ,                                       !- Apply Holiday
  DateRange,                              !- Date Specification Type
  1,                                      !- Start Month
  1,                                      !- Start Day
  12,                                     !- End Month
  31;                                     !- End Day

OS:Schedule:Day,
  {3da627cd-d04c-46b9-ad96-7ef8584a65e0}, !- Handle
  0400|2200|Outpatient|default|htg_setpoint |1/1-12/31|Sat/Sun, !- Name
  {3588399b-8bbc-452d-b45f-e1e54f7e8ed6}, !- Schedule Type Limits Name
  ,                                       !- Interpolate to Timestep
  24,                                     !- Hour 1
  0,                                      !- Minute 1
  18.3;                                   !- Value Until Time 1

OS:Schedule:Ruleset,
  {5eca3d69-15ca-495a-9b13-8119a8a480eb}, !- Handle
  0400|2200|Outpatient|default|swh_target_temp, !- Name
  {6cf01617-d909-4c79-b233-1b3d9428921b}, !- Schedule Type Limits Name
  {11ced8c4-1156-4c61-886b-b5da0f11d4b8}, !- Default Day Schedule Name
  {d5a9c2bf-ee1a-48a9-bc9c-47cddbfc497b}, !- Summer Design Day Schedule Name
  {42749471-5fa1-487b-b93e-7e095295c499}; !- Winter Design Day Schedule Name

OS:ScheduleTypeLimits,
  {6cf01617-d909-4c79-b233-1b3d9428921b}, !- Handle
  Temperature Schedule Type Limits,       !- Name
  ,                                       !- Lower Limit Value {BasedOnField A4}
  ,                                       !- Upper Limit Value {BasedOnField A4}
  Continuous,                             !- Numeric Type
  Temperature;                            !- Unit Type

OS:Schedule:Day,
  {11ced8c4-1156-4c61-886b-b5da0f11d4b8}, !- Handle
  0400|2200|Outpatient|default|swh_target_temp |default, !- Name
  {6cf01617-d909-4c79-b233-1b3d9428921b}, !- Schedule Type Limits Name
  ,                                       !- Interpolate to Timestep
  24,                                     !- Hour 1
  0,                                      !- Minute 1
  60.0000000000001;                       !- Value Until Time 1

OS:Schedule:Day,
  {d5a9c2bf-ee1a-48a9-bc9c-47cddbfc497b}, !- Handle
  0400|2200|Outpatient|default|swh_target_temp Summer Design Day, !- Name
  {6cf01617-d909-4c79-b233-1b3d9428921b}, !- Schedule Type Limits Name
  ,                                       !- Interpolate to Timestep
  24,                                     !- Hour 1
  0,                                      !- Minute 1
  60.0000000000001;                       !- Value Until Time 1

OS:Schedule:Day,
  {42749471-5fa1-487b-b93e-7e095295c499}, !- Handle
  0400|2200|Outpatient|default|swh_target_temp Winter Design Day, !- Name
  {6cf01617-d909-4c79-b233-1b3d9428921b}, !- Schedule Type Limits Name
  ,                                       !- Interpolate to Timestep
  24,                                     !- Hour 1
  0,                                      !- Minute 1
  60.0000000000001;                       !- Value Until Time 1

OS:Schedule:Ruleset,
  {af2b3790-f1bc-41bf-bd0a-a85375cb6891}, !- Handle
  0400|2200|Outpatient|default|occ,       !- Name
  {cdca9a38-3027-4672-8df8-59f2b5baa835}, !- Schedule Type Limits Name
  {1eb0434e-ff47-4ee0-ae7f-0a906c3a5ed1}, !- Default Day Schedule Name