
OS:Version,
  {8c6543ea-971f-4c14-9119-7a1531901140}, !- Handle
  1.5.5;                                  !- Version Identifier

OS:ClimateZones,
  {135edfab-17e7-40db-a436-27d385a8cd6d}, !- Handle
  ,                                       !- Active Institution
  ,                                       !- Active Year
  ASHRAE,                                 !- Climate Zone Institution Name 1
  ANSI/ASHRAE Standard 169,               !- Climate Zone Document Name 1
  2006,                                   !- Climate Zone Document Year 1
  ,                                       !- Climate Zone Value 1
  CEC,                                    !- Climate Zone Institution Name 2
  California Climate Zone Descriptions,   !- Climate Zone Document Name 2
  1995,                                   !- Climate Zone Document Year 2
  ;                                       !- Climate Zone Value 2

OS:YearDescription,
  {513d8dda-86cb-442a-b01c-1f7f0e0ac70e}; !- Handle

OS:RadianceParameters,
  {270a96f1-3c86-4b75-a667-cdf22790e2c8}, !- Handle
  1,                                      !- Accumulated Rays per Record
  0,                                      !- Direct Threshold
  1,                                      !- Direct Certainty
  1,                                      !- Direct Jitter
  1,                                      !- Direct Pretest
  6,                                      !- Ambient Bounces VMX
  2,                                      !- Ambient Bounces DMX
  4050,                                   !- Ambient Divisions VMX
  512,                                    !- Ambient Divisions DMX
  256,                                    !- Ambient Supersamples
  0.001,                                  !- Limit Weight VMX
  0.001,                                  !- Limit Weight DMX
  500,                                    !- Klems Sampling Density
  146;                                    !- Sky Discretization Resolution

OS:SimulationControl,
  {2c487a4c-bac9-4ac5-b669-1e49d9da7c2b}, !- Handle
  ,                                       !- Do Zone Sizing Calculation
  ,                                       !- Do System Sizing Calculation
  ,                                       !- Do Plant Sizing Calculation
  No,                                     !- Run Simulation for Sizing Periods
  ,                                       !- Run Simulation for Weather File Run Periods
  0.04,                                   !- Loads Convergence Tolerance Value
  ,                                       !- Temperature Convergence Tolerance Value {deltaC}
  ,                                       !- Solar Distribution
  ,                                       !- Maximum Number of Warmup Days
  2;                                      !- Minimum Number of Warmup Days

OS:Sizing:Parameters,
  {dde5af6f-7923-4600-a28a-7556673a0266}, !- Handle
  1.25,                                   !- Heating Sizing Factor
  1.15;                                   !- Cooling Sizing Factor

OS:ProgramControl,
  {05027a99-f2b3-4aeb-afc6-1425fbb4371d}; !- Handle

OS:Timestep,
  {4ebc9f1e-4707-402e-9844-67eb1ffbd522}, !- Handle
  2;                                      !- Number of Timesteps per Hour

OS:OutputControl:ReportingTolerances,
  {65797aa2-06a9-45fe-b69d-bc6e060399d3}; !- Handle

OS:ConvergenceLimits,
  {9fc11aba-8822-4f3d-970c-46391ba4040d}; !- Handle

OS:ShadowCalculation,
  {ca758bea-4416-4626-9bba-3d8795c79bd6}, !- Handle
  7,                                      !- Calculation Frequency
  15000;                                  !- Maximum Figures in Shadow Overlap Calculations

OS:SurfaceConvectionAlgorithm:Inside,
  {aaabfc36-718a-4ab0-b622-f186ebb45230}, !- Handle
  TARP;                                   !- Algorithm

OS:SurfaceConvectionAlgorithm:Outside,
  {9a0a9f6f-4bbd-4b12-a121-9492a1fcd7d6}, !- Handle
  DOE-2;                                  !- Algorithm

OS:HeatBalanceAlgorithm,
  {9d93e563-e1e0-46d7-9e39-d1c8aceb7212}, !- Handle
  ConductionTransferFunction,             !- Algorithm
  200;                                    !- Surface Temperature Upper Limit {F}

OS:ZoneAirHeatBalanceAlgorithm,
  {8520d93e-310f-4696-9bcd-36228bfdd743}, !- Handle
  AnalyticalSolution;                     !- Algorithm

OS:ZoneAirContaminantBalance,
  {eb5fc3ae-fb22-4160-8fcb-3e3b22b000d3}; !- Handle

OS:ZoneCapacitanceMultiplier:ResearchSpecial,
  {4020ce4f-5a7a-4849-8028-8305d7b751b1}, !- Handle
  ,                                       !- Temperature Capacity Multiplier
  ,                                       !- Humidity Capacity Multiplier
  ;                                       !- Carbon Dioxide Capacity Multiplier

OS:RunPeriod,
  {28df894d-6af9-4fb8-8f56-df1753344aa3}, !- Handle
  Run Period 1,                           !- Name
  1,                                      !- Begin Month
  1,                                      !- Begin Day of Month
  12,                                     !- End Month
  31,                                     !- End Day of Month
  ,                                       !- Use Weather File Holidays and Special Days
  ,                                       !- Use Weather File Daylight Saving Period
  ,                                       !- Apply Weekend Holiday Rule
  ,                                       !- Use Weather File Rain Indicators
  ,                                       !- Use Weather File Snow Indicators
  ;                                       !- Number of Times Runperiod to be Repeated

OS:Building,
  {bf305633-c5a1-4881-9edf-ca5e1a8e1274}, !- Handle
  Building 1,                             !- Name
  ,                                       !- Building Sector Type
  ,                                       !- North Axis {deg}
  ,                                       !- Nominal Floor to Floor Height {m}
  ,                                       !- Space Type Name
  ,                                       !- Default Construction Set Name
  {109b7ba1-b3cd-4e59-8517-756d43d4ad9f}, !- Default Schedule Set Name
  ,                                       !- Standards Number of Stories
  ,                                       !- Standards Number of Above Ground Stories
  Outpatient;                             !- Standards Building Type

OS:LifeCycleCost:Parameters,
  {231cf8a0-f0e7-4251-a99f-11f0d464e661}, !- Handle
  FEMP,                                   !- Analysis Type
  ,                                       !- Discounting Convention
  ,                                       !- Inflation Approach
  ,                                       !- Real Discount Rate
  ,                                       !- Nominal Discount Rate
  ,                                       !- Inflation
  ,                                       !- Base Date Month
  ,                                       !- Base Date Year
  ,                                       !- Service Date Month
  ,                                       !- Service Date Year
  ,                                       !- Length of Study Period in Years
  ,                                       !- Tax Rate
  ,                                       !- Depreciation Method
  Yes;                                    !- Use NIST Fuel Escalation Rates

OS:Facility,
  {3ba8e45b-b833-44eb-a723-ea6c3946dc96}; !- Handle

OS:SpaceType,
  {06f4e7b3-5154-43d5-8198-1a2640e75956}, !- Handle
  Outpatient|BlendCirc|DOE Ref Pre-1980|ASHRAE 169-2006-5A, !- Name
  {7425e529-8df9-4ae4-ae9d-40646e8f6b8f}, !- Default Construction Set Name
  ,                                       !- Default Schedule Set Name
  {3698f91f-0cfb-4dfb-b85f-e67225d765f8}, !- Group Rendering Name
  {26edbc68-fea7-41a0-b1d9-54b33d04e760}, !- Design Specification Outdoor Air Object Name
  Outpatient,                             !- Standards Building Type
  BlendCirc;                              !- Standards Space Type

OS:Rendering:Color,
  {3698f91f-0cfb-4dfb-b85f-e67225d765f8}, !- Handle
  Rendering Color 1,                      !- Name
  169,                                    !- Rendering Red Value
  31,                                     !- Rendering Green Value
  31;                                     !- Rendering Blue Value

OS:SpaceType,
  {e78ab6fc-921b-4602-a44f-222822c81e3e}, !- Handle
  Outpatient|BlendOff|DOE Ref Pre-1980|ASHRAE 169-2006-5A, !- Name
  {7425e529-8df9-4ae4-ae9d-40646e8f6b8f}, !- Default Construction Set Name
  ,                                       !- Default Schedule Set Name
  {b05c22cc-b8de-4c03-96c1-ec60d0224a6a}, !- Group Rendering Name
  {c269c0af-ba94-42e1-845f-b678eb204304}, !- Design Specification Outdoor Air Object Name
  Outpatient,                             !- Standards Building Type
  BlendOff;                               !- Standards Space Type

OS:Rendering:Color,
  {b05c22cc-b8de-4c03-96c1-ec60d0224a6a}, !- Handle
  Rendering Color 2,                      !- Name
  120,                                    !- Rendering Red Value
  230,                                    !- Rendering Green Value
  199;                                    !- Rendering Blue Value

OS:SpaceType,
  {36b74e2f-ff5c-48fc-9254-fd16c4ffa40b}, !- Handle
  Outpatient|BlendPat|DOE Ref Pre-1980|ASHRAE 169-2006-5A, !- Name
  {7425e529-8df9-4ae4-ae9d-40646e8f6b8f}, !- Default Construction Set Name
  ,                                       !- Default Schedule Set Name
  {5eb34935-0a1c-475c-94d7-87eebff744de}, !- Group Rendering Name
  {1ee05b95-0277-4fa9-98d2-226c00ad9f31}, !- Design Specification Outdoor Air Object Name
  Outpatient,                             !- Standards Building Type
  BlendPat;                               !- Standards Space Type

OS:Rendering:Color,
  {5eb34935-0a1c-475c-94d7-87eebff744de}, !- Handle
  Rendering Color 3,                      !- Name
  136,                                    !- Rendering Red Value
  78,                                     !- Rendering Green Value
  222;                                    !- Rendering Blue Value

OS:SpaceType,
  {c38984b7-6f6f-40ff-a9a4-200c3ab558a4}, !- Handle
  Outpatient|BlendImg|DOE Ref Pre-1980|ASHRAE 169-2006-5A, !- Name
  {7425e529-8df9-4ae4-ae9d-40646e8f6b8f}, !- Default Construction Set Name
  ,                                       !- Default Schedule Set Name
  {b432aabb-89dd-4c56-b87f-938b56b38a1a}, !- Group Rendering Name
  {322088be-042a-47b6-b8f8-2089a5a3533b}, !- Design Specification Outdoor Air Object Name
  Outpatient,                             !- Standards Building Type
  BlendImg;                               !- Standards Space Type

OS:Rendering:Color,
  {b432aabb-89dd-4c56-b87f-938b56b38a1a}, !- Handle
  Rendering Color 4,                      !- Name
  169,                                    !- Rendering Red Value
  31,                                     !- Rendering Green Value
  159;                                    !- Rendering Blue Value

OS:SpaceType,
  {5e6a9a9d-e0d7-4416-9b26-e007fc40c81c}, !- Handle
  Outpatient|BlendMedStg|DOE Ref Pre-1980|ASHRAE 169-2006-5A, !- Name
  {7425e529-8df9-4ae4-ae9d-40646e8f6b8f}, !- Default Construction Set Name
  ,                                       !- Default Schedule Set Name
  {33e1b6a3-1aed-44ce-ad83-529be2f5b377}, !- Group Rendering Name
  {01ec44f7-768e-4348-b328-9c6d9f0f7b7c}, !- Design Specification Outdoor Air Object Name
  Outpatient,                             !- Standards Building Type
  BlendMedStg;                            !- Standards Space Type

OS:Rendering:Color,
  {33e1b6a3-1aed-44ce-ad83-529be2f5b377}, !- Handle
  Rendering Color 5,                      !- Name
  204,                                    !- Rendering Red Value
  120,                                    !- Rendering Green Value
  230;                                    !- Rendering Blue Value

OS:SpaceType,
  {937bdfaa-1fb2-4ba8-b408-7398336b9948}, !- Handle
  Outpatient|BlendMisc|DOE Ref Pre-1980|ASHRAE 169-2006-5A, !- Name
  {7425e529-8df9-4ae4-ae9d-40646e8f6b8f}, !- Default Construction Set Name
  ,                                       !- Default Schedule Set Name
  {1a49456c-8471-432f-95af-81ad404885d0}, !- Group Rendering Name
  {204b17cf-b4fb-49c2-9aaa-62e470553636}, !- Design Specification Outdoor Air Object Name
  Outpatient,                             !- Standards Building Type
  BlendMisc;                              !- Standards Space Type

OS:Rendering:Color,
  {1a49456c-8471-432f-95af-81ad404885d0}, !- Handle
  Rendering Color 6,                      !- Name
  120,                                    !- Rendering Red Value
  149,                                    !- Rendering Green Value
  230;                                    !- Rendering Blue Value

OS:Schedule:Ruleset,
  {e69ccc69-2168-4b24-b28c-665ddbd17223}, !- Handle
  0400|2200|Outpatient|default|hoo,       !- Name
  {32c8422a-7148-4c9c-b378-8875cc81250d}, !- Schedule Type Limits Name
  {93fcc5b7-0a45-4706-a9a9-edbb6140a3c8}, !- Default Day Schedule Name
  {f915e68e-fb93-4881-8878-9767679061f9}, !- Summer Design Day Schedule Name
  {41b9f467-ce33-4b6c-a5ce-32ff206378f1}; !- Winter Design Day Schedule Name

OS:Schedule:Day,
  {93fcc5b7-0a45-4706-a9a9-edbb6140a3c8}, !- Handle
  0400|2200|Outpatient|default|hoo Schedule Week Day, !- Name
  {32c8422a-7148-4c9c-b378-8875cc81250d}, !- Schedule Type Limits Name
  ,                                       !- Interpolate to Timestep
  4,                                      !- Hour 1
  0,                                      !- Minute 1
  0,                                      !- Value Until Time 1
  22,                                     !- Hour 2
  0,                                      !- Minute 2
  1,                                      !- Value Until Time 2
  24,                                     !- Hour 3
  0,                                      !- Minute 3
  0;                                      !- Value Until Time 3

OS:Schedule:Day,
  {fd5f5f09-2fba-4fac-8e85-a3e1ef798789}, !- Handle
  Schedule Day 2,                         !- Name
  ,                                       !- Schedule Type Limits Name
  ,                                       !- Interpolate to Timestep
  24,                                     !- Hour 1
  0,                                      !- Minute 1
  0;                                      !- Value Until Time 1

OS:Schedule:Day,
  {41b9f467-ce33-4b6c-a5ce-32ff206378f1}, !- Handle
  0400|2200|Outpatient|default|hoo Winter Design Day, !- Name
  {32c8422a-7148-4c9c-b378-8875cc81250d}, !- Schedule Type Limits Name
  ,                                       !- Interpolate to Timestep
  24,                                     !- Hour 1
  0,                                      !- Minute 1
  0;                                      !- Value Until Time 1

OS:Schedule:Day,
  {b2abc048-170f-4d0a-a28a-3fd57448f449}, !- Handle
  Schedule Day 3,                         !- Name
  ,                                       !- Schedule Type Limits Name
  ,                                       !- Interpolate to Timestep
  24,                                     !- Hour 1
  0,                                      !- Minute 1
  0;                                      !- Value Until Time 1

OS:Schedule:Day,
  {f915e68e-fb93-4881-8878-9767679061f9}, !- Handle
  0400|2200|Outpatient|default|hoo Summer Design Day, !- Name
  {32c8422a-7148-4c9c-b378-8875cc81250d}, !- Schedule Type Limits Name
  ,                                       !- Interpolate to Timestep
  24,                                     !- Hour 1
  0,                                      !- Minute 1
  1;                                      !- Value Until Time 1

OS:DefaultScheduleSet,
  {109b7ba1-b3cd-4e59-8517-756d43d4ad9f}, !- Handle
  Building Hours of Operation,            !- Name
  {e69ccc69-2168-4b24-b28c-665ddbd17223}, !- Hours of Operation Schedule Name
  ,                                       !- Number of People Schedule Name
  ,                                       !- People Activity Level Schedule Name
  ,                                       !- Lighting Schedule Name
  ,                                       !- Electric Equipment Schedule Name
  ,                                       !- Gas Equipment Schedule Name
  ,                                       !- Hot Water Equipment Schedule Name
  ,                                       !- Infiltration Schedule Name
  ,                                       !- Steam Equipment Schedule Name
  ;                                       !- Other Equipment Schedule Name

OS:ScheduleTypeLimits,
  {32c8422a-7148-4c9c-b378-8875cc81250d}, !- Handle
  OnOff,                                  !- Name
  0,                                      !- Lower Limit Value {BasedOnField A4}
  1,                                      !- Upper Limit Value {BasedOnField A4}
  Discrete,                               !- Numeric Type
  Availability;                           !- Unit Type

OS:Schedule:Ruleset,
  {7201ecfb-5645-4a17-b505-ccea44c9c3ce}, !- Handle
  0400|2200|Outpatient|default|work_eff,  !- Name
  {21519512-b53d-4db8-9694-96acd6668e48}, !- Schedule Type Limits Name
  {b2b0dc1e-1e14-4f51-8716-9ec05d9b6375}, !- Default Day Schedule Name
  {b3094e31-c3ec-4d69-996a-80c19c33af02}, !- Summer Design Day Schedule Name
  {f8209bcf-e36f-4bf3-9740-ec7cef49589e}; !- Winter Design Day Schedule Name

OS:ScheduleTypeLimits,
  {21519512-b53d-4db8-9694-96acd6668e48}, !- Handle
  Fraction Schedule Type Limits,          !- Name
  0,                                      !- Lower Limit Value {BasedOnField A4}
  1,                                      !- Upper Limit Value {BasedOnField A4}
  Continuous,                             !- Numeric Type
  Dimensionless;                          !- Unit Type

OS:Schedule:Day,
  {b2b0dc1e-1e14-4f51-8716-9ec05d9b6375}, !- Handle
  0400|2200|Outpatient|default|work_eff |default, !- Name
  {21519512-b53d-4db8-9694-96acd6668e48}, !- Schedule Type Limits Name
  ,                                       !- Interpolate to Timestep
  24,                                     !- Hour 1
  0,                                      !- Minute 1
  0;                                      !- Value Until Time 1

OS:Schedule:Day,
  {b3094e31-c3ec-4d69-996a-80c19c33af02}, !- Handle
  0400|2200|Outpatient|default|work_eff Summer Design Day, !- Name
  {21519512-b53d-4db8-9694-96acd6668e48}, !- Schedule Type Limits Name
  ,                                       !- Interpolate to Timestep
  24,                                     !- Hour 1
  0,                                      !- Minute 1
  0;                                      !- Value Until Time 1

OS:Schedule:Day,
  {f8209bcf-e36f-4bf3-9740-ec7cef49589e}, !- Handle
  0400|2200|Outpatient|default|work_eff Winter Design Day, !- Name
  {21519512-b53d-4db8-9694-96acd6668e48}, !- Schedule Type Limits Name
  ,                                       !- Interpolate to Timestep
  24,                                     !- Hour 1
  0,                                      !- Minute 1
  0;                                      !- Value Until Time 1

OS:Schedule:Ruleset,
  {30916d73-53bc-4871-a805-fef053107991}, !- Handle
  0400|2200|Outpatient|default|clg_setpoint, !- Name
  {ee566849-a195-4c71-9a83-696fce41711b}, !- Schedule Type Limits Name
  {9edea9fe-8aad-4b2f-94d2-00b841640255}, !- Default Day Schedule Name
  {f284cfa2-bc2b-4add-97f1-cc066a9f1daf}, !- Summer Design Day Schedule Name
  {2911692f-8593-4e04-b49b-5b9ccb3953d6}; !- Winter Design Day Schedule Name

OS:ScheduleTypeLimits,
  {ee566849-a195-4c71-9a83-696fce41711b}, !- Handle
  Thermostat Cooling Setpoint Schedule Type Limits, !- Name
  0,                                      !- Lower Limit Value {BasedOnField A4}
  100,                                    !- Upper Limit Value {BasedOnField A4}
  Continuous,                             !- Numeric Type
  Temperature;                            !- Unit Type

OS:Schedule:Day,
  {9edea9fe-8aad-4b2f-94d2-00b841640255}, !- Handle
  0400|2200|Outpatient|default|clg_setpoint |default, !- Name
  {ee566849-a195-4c71-9a83-696fce41711b}, !- Schedule Type Limits Name
  ,                                       !- Interpolate to Timestep
  24,                                     !- Hour 1
  0,                                      !- Minute 1
  22.2;                                   !- Value Until Time 1

OS:Schedule:Day,
  {f284cfa2-bc2b-4add-97f1-cc066a9f1daf}, !- Handle
  0400|2200|Outpatient|default|clg_setpoint Summer Design Day, !- Name
  {ee566849-a195-4c71-9a83-696fce41711b}, !- Schedule Type Limits Name
  ,                                       !- Interpolate to Timestep
  24,                                     !- Hour 1
  0,                                      !- Minute 1
  22.2;                                   !- Value Until Time 1

OS:Schedule:Day,
  {2911692f-8593-4e04-b49b-5b9ccb3953d6}, !- Handle
  0400|2200|Outpatient|default|clg_setpoint Winter Design Day, !- Name
  {ee566849-a195-4c71-9a83-696fce41711b}, !- Schedule Type Limits Name
  ,                                       !- Interpolate to Timestep
  24,                                     !- Hour 1
  0,                                      !- Minute 1
  22.2;                                   !- Value Until Time 1

OS:Schedule:Rule,
  {c0c41fcc-c097-4731-8611-c4b3983f74ed}, !- Handle
  0400|2200|Outpatient|default|clg_setpoint |1/1-12/31|Sat/Sun Rule, !- Name
  {30916d73-53bc-4871-a805-fef053107991}, !- Schedule Ruleset Name
  0,                                      !- Rule Order
  {4c0b4ba8-6226-4c1e-bbb6-09a2d652d237}, !- Day Schedule Name
  Yes,                                    !- Apply Sunday
  ,                                       !- Apply Monday
  ,                                       !- Apply Tuesday
  ,                                       !- Apply Wednesday
  ,                                       !- Apply Thursday
  ,                                       !- Apply Friday
  Yes,                                    !- Apply Saturday
  ,                                       !- Apply Holiday
  DateRange,                              !- Date Specification Type
  1,                                      !- Start Month
  1,                                      !- Start Day
  12,                                     !- End Month
  31;                                     !- End Day

OS:Schedule:Day,
  {4c0b4ba8-6226-4c1e-bbb6-09a2d652d237}, !- Handle
  0400|2200|Outpatient|default|clg_setpoint |1/1-12/31|Sat/Sun, !- Name
  {ee566849-a195-4c71-9a83-696fce41711b}, !- Schedule Type Limits Name
  ,                                       !- Interpolate to Timestep
  24,                                     !- Hour 1
  0,                                      !- Minute 1
  25.0000000000001;                       !- Value Until Time 1

OS:Schedule:Ruleset,
  {3ae59223-8221-4679-aed0-7b90f74a643b}, !- Handle
  0400|2200|Outpatient|default|hvac,      !- Name
  {67d36edb-9800-4cca-ab3a-e5604b480507}, !- Schedule Type Limits Name
  {640acf76-f210-4a07-be49-4dbbbdf9c1f9}, !- Default Day Schedule Name
  {19a0b28c-8852-47b2-bb91-4fa76af8ba70}, !- Summer Design Day Schedule Name
  {831087b8-4a90-4558-9f90-cf8beb7d9633}; !- Winter Design Day Schedule Name

OS:ScheduleTypeLimits,
  {67d36edb-9800-4cca-ab3a-e5604b480507}, !- Handle
  HVAC Operation Schedule Type Limits,    !- Name
  0,                                      !- Lower Limit Value {BasedOnField A4}
  1,                                      !- Upper Limit Value {BasedOnField A4}
  Discrete,                               !- Numeric Type
  Availability;                           !- Unit Type

OS:Schedule:Day,
  {640acf76-f210-4a07-be49-4dbbbdf9c1f9}, !- Handle
  0400|2200|Outpatient|default|hvac |default, !- Name
  {67d36edb-9800-4cca-ab3a-e5604b480507}, !- Schedule Type Limits Name
  ,                                       !- Interpolate to Timestep
  24,                                     !- Hour 1
  0,                                      !- Minute 1
  1;                                      !- Value Until Time 1

OS:Schedule:Day,
  {19a0b28c-8852-47b2-bb91-4fa76af8ba70}, !- Handle
  0400|2200|Outpatient|default|hvac Summer Design Day, !- Name
  {67d36edb-9800-4cca-ab3a-e5604b480507}, !- Schedule Type Limits Name
  ,                                       !- Interpolate to Timestep
  24,                                     !- Hour 1
  0,                                      !- Minute 1
  1;                                      !- Value Until Time 1

OS:Schedule:Day,
  {831087b8-4a90-4558-9f90-cf8beb7d9633}, !- Handle
  0400|2200|Outpatient|default|hvac Winter Design Day, !- Name
  {67d36edb-9800-4cca-ab3a-e5604b480507}, !- Schedule Type Limits Name
  ,                                       !- Interpolate to Timestep
  24,                                     !- Hour 1
  0,                                      !- Minute 1
  1;                                      !- Value Until Time 1

OS:Schedule:Ruleset,
  {bb6142b7-e5e3-46f0-9163-aba9ca9c43f5}, !- Handle
  0400|2200|Outpatient|default|air_velocity, !- Name
  {880d09ea-4e1b-4374-85d7-55f23990e58f}, !- Schedule Type Limits Name
  {f65f44eb-dc88-4dfc-8983-30366b9faa7b}, !- Default Day Schedule Name
  {3fe7109b-c44e-464d-8689-d5ed5be82a59}, !- Summer Design Day Schedule Name
  {3d8dc1ae-b90b-48b0-883f-7833790f4ca5}; !- Winter Design Day Schedule Name

OS:ScheduleTypeLimits,
  {880d09ea-4e1b-4374-85d7-55f23990e58f}, !- Handle
  Dimensionless Schedule Type Limits,     !- Name
  ,                                       !- Lower Limit Value {BasedOnField A4}
  ,                                       !- Upper Limit Value {BasedOnField A4}
  Continuous,                             !- Numeric Type
  Dimensionless;                          !- Unit Type

OS:Schedule:Day,
  {f65f44eb-dc88-4dfc-8983-30366b9faa7b}, !- Handle
  0400|2200|Outpatient|default|air_velocity |default, !- Name
  {880d09ea-4e1b-4374-85d7-55f23990e58f}, !- Schedule Type Limits Name
  ,                                       !- Interpolate to Timestep
  24,                                     !- Hour 1
  0,                                      !- Minute 1
  0.200152;                               !- Value Until Time 1

OS:Schedule:Day,
  {3fe7109b-c44e-464d-8689-d5ed5be82a59}, !- Handle
  0400|2200|Outpatient|default|air_velocity Summer Design Day, !- Name
  {880d09ea-4e1b-4374-85d7-55f23990e58f}, !- Schedule Type Limits Name
  ,                                       !- Interpolate to Timestep
  24,                                     !- Hour 1
  0,                                      !- Minute 1
  0.200152;                               !- Value Until Time 1

OS:Schedule:Day,
  {3d8dc1ae-b90b-48b0-883f-7833790f4ca5}, !- Handle
  0400|2200|Outpatient|default|air_velocity Winter Design Day, !- Name
  {880d09ea-4e1b-4374-85d7-55f23990e58f}, !- Schedule Type Limits Name
  ,                                       !- Interpolate to Timestep
  24,                                     !- Hour 1
  0,                                      !- Minute 1
  0.200152;                               !- Value Until Time 1

OS:Schedule:Ruleset,
  {7d0f98d0-aae9-44da-9f75-cd82a7eb52ae}, !- Handle
  0400|2200|Outpatient|default|elec_equip, !- Name
  {878caf6e-527c-417b-9ef9-3aa0c093214b}, !- Schedule Type Limits Name
  {32f409ab-9ac1-4a96-9c80-8c248ec8aa82}, !- Default Day Schedule Name
  {be5add7d-0789-46e2-af78-1e163e736fb1}, !- Summer Design Day Schedule Name
  {7174378c-a7e1-42aa-b228-e6bb77b4ba59}; !- Winter Design Day Schedule Name

OS:ScheduleTypeLimits,
  {878caf6e-527c-417b-9ef9-3aa0c093214b}, !- Handle
  Equipment Schedule Type Limits,         !- Name
  0,                                      !- Lower Limit Value {BasedOnField A4}
  1,                                      !- Upper Limit Value {BasedOnField A4}
  Continuous,                             !- Numeric Type
  Dimensionless;                          !- Unit Type

OS:Schedule:Day,
  {32f409ab-9ac1-4a96-9c80-8c248ec8aa82}, !- Handle
  0400|2200|Outpatient|default|elec_equip |default, !- Name
  {878caf6e-527c-417b-9ef9-3aa0c093214b}, !- Schedule Type Limits Name
  ,                                       !- Interpolate to Timestep
  4,                                      !- Hour 1
  0,                                      !- Minute 1
  0.3,                                    !- Value Until Time 1
  6,                                      !- Hour 2
  0,                                      !- Minute 2
  0.5,                                    !- Value Until Time 2
  18,                                     !- Hour 3
  0,                                      !- Minute 3
  1,                                      !- Value Until Time 3
  20,                                     !- Hour 4
  0,                                      !- Minute 4
  0.5,                                    !- Value Until Time 4
  24,                                     !- Hour 5
  0,                                      !- Minute 5
  0.3;                                    !- Value Until Time 5

OS:Schedule:Day,
  {be5add7d-0789-46e2-af78-1e163e736fb1}, !- Handle
  0400|2200|Outpatient|default|elec_equip Summer Design Day, !- Name
  {878caf6e-527c-417b-9ef9-3aa0c093214b}, !- Schedule Type Limits Name
  ,                                       !- Interpolate to Timestep
  24,                                     !- Hour 1
  0,                                      !- Minute 1
  1;                                      !- Value Until Time 1

OS:Schedule:Day,
  {7174378c-a7e1-42aa-b228-e6bb77b4ba59}, !- Handle
  0400|2200|Outpatient|default|elec_equip Winter Design Day, !- Name
  {878caf6e-527c-417b-9ef9-3aa0c093214b}, !- Schedule Type Limits Name
  ,                                       !- Interpolate to Timestep
  24,                                     !- Hour 1
  0,                                      !- Minute 1
  0.3;                                    !- Value Until Time 1

OS:Schedule:Rule,