
OS:Version,
  {1cb04560-fcee-4ac3-b24b-379ea1b2f80e}, !- Handle
  1.6.0;                                  !- Version Identifier

OS:ClimateZones,
  {135edfab-17e7-40db-a436-27d385a8cd6d}, !- Handle
  ,                                       !- Active Institution
  ,                                       !- Active Year
  ASHRAE,                                 !- Climate Zone Institution Name 1
  ANSI/ASHRAE Standard 169,               !- Climate Zone Document Name 1
  2006,                                   !- Climate Zone Document Year 1
  ,                                       !- Climate Zone Value 1
  CEC,                                    !- Climate Zone Institution Name 2
  California Climate Zone Descriptions,   !- Climate Zone Document Name 2
  1995,                                   !- Climate Zone Document Year 2
  ;                                       !- Climate Zone Value 2

OS:YearDescription,
  {513d8dda-86cb-442a-b01c-1f7f0e0ac70e}; !- Handle

OS:RadianceParameters,
  {270a96f1-3c86-4b75-a667-cdf22790e2c8}, !- Handle
  1,                                      !- Accumulated Rays per Record
  0,                                      !- Direct Threshold
  1,                                      !- Direct Certainty
  1,                                      !- Direct Jitter
  1,                                      !- Direct Pretest
  6,                                      !- Ambient Bounces VMX
  2,                                      !- Ambient Bounces DMX
  4050,                                   !- Ambient Divisions VMX
  512,                                    !- Ambient Divisions DMX
  256,                                    !- Ambient Supersamples
  0.001,                                  !- Limit Weight VMX
  0.001,                                  !- Limit Weight DMX
  500,                                    !- Klems Sampling Density
  146;                                    !- Sky Discretization Resolution

OS:SimulationControl,
  {2c487a4c-bac9-4ac5-b669-1e49d9da7c2b}, !- Handle
  ,                                       !- Do Zone Sizing Calculation
  ,                                       !- Do System Sizing Calculation
  ,                                       !- Do Plant Sizing Calculation
  No,                                     !- Run Simulation for Sizing Periods
  ,                                       !- Run Simulation for Weather File Run Periods
  0.04,                                   !- Loads Convergence Tolerance Value
  ,                                       !- Temperature Convergence Tolerance Value {deltaC}
  ,                                       !- Solar Distribution
  ,                                       !- Maximum Number of Warmup Days
  2;                                      !- Minimum Number of Warmup Days

OS:Sizing:Parameters,
  {dde5af6f-7923-4600-a28a-7556673a0266}, !- Handle
  1.25,                                   !- Heating Sizing Factor
  1.15;                                   !- Cooling Sizing Factor

OS:ProgramControl,
  {05027a99-f2b3-4aeb-afc6-1425fbb4371d}; !- Handle

OS:Timestep,
  {4ebc9f1e-4707-402e-9844-67eb1ffbd522}, !- Handle
  2;                                      !- Number of Timesteps per Hour

OS:OutputControl:ReportingTolerances,
  {65797aa2-06a9-45fe-b69d-bc6e060399d3}; !- Handle

OS:ConvergenceLimits,
  {9fc11aba-8822-4f3d-970c-46391ba4040d}; !- Handle

OS:ShadowCalculation,
  {ca758bea-4416-4626-9bba-3d8795c79bd6}, !- Handle
  7,                                      !- Calculation Frequency
  15000;                                  !- Maximum Figures in Shadow Overlap Calculations

OS:SurfaceConvectionAlgorithm:Inside,
  {aaabfc36-718a-4ab0-b622-f186ebb45230}, !- Handle
  TARP;                                   !- Algorithm

OS:SurfaceConvectionAlgorithm:Outside,
  {9a0a9f6f-4bbd-4b12-a121-9492a1fcd7d6}, !- Handle
  DOE-2;                                  !- Algorithm

OS:HeatBalanceAlgorithm,
  {9d93e563-e1e0-46d7-9e39-d1c8aceb7212}, !- Handle
  ConductionTransferFunction,             !- Algorithm
  200;                                    !- Surface Temperature Upper Limit {F}

OS:ZoneAirHeatBalanceAlgorithm,
  {8520d93e-310f-4696-9bcd-36228bfdd743}, !- Handle
  AnalyticalSolution;                     !- Algorithm

OS:ZoneAirContaminantBalance,
  {eb5fc3ae-fb22-4160-8fcb-3e3b22b000d3}; !- Handle

OS:ZoneCapacitanceMultiplier:ResearchSpecial,
  {4020ce4f-5a7a-4849-8028-8305d7b751b1}, !- Handle
  ,                                       !- Temperature Capacity Multiplier
  ,                                       !- Humidity Capacity Multiplier
  ;                                       !- Carbon Dioxide Capacity Multiplier

OS:RunPeriod,
  {28df894d-6af9-4fb8-8f56-df1753344aa3}, !- Handle
  Run Period 1,                           !- Name
  1,                                      !- Begin Month
  1,                                      !- Begin Day of Month
  12,                                     !- End Month
  31,                                     !- End Day of Month
  ,                                       !- Use Weather File Holidays and Special Days
  ,                                       !- Use Weather File Daylight Saving Period
  ,                                       !- Apply Weekend Holiday Rule
  ,                                       !- Use Weather File Rain Indicators
  ,                                       !- Use Weather File Snow Indicators
  ;                                       !- Number of Times Runperiod to be Repeated

OS:Building,
  {bf305633-c5a1-4881-9edf-ca5e1a8e1274}, !- Handle
  Building 1,                             !- Name
  ,                                       !- Building Sector Type
  ,                                       !- North Axis {deg}
  ,                                       !- Nominal Floor to Floor Height {m}
  ,                                       !- Space Type Name
  ,                                       !- Default Construction Set Name
  {1b010a8f-e032-49b5-8ac9-c5174282b1a8}, !- Default Schedule Set Name
  ,                                       !- Standards Number of Stories
  ,                                       !- Standards Number of Above Ground Stories
  Outpatient;                             !- Standards Building Type

OS:LifeCycleCost:Parameters,
  {231cf8a0-f0e7-4251-a99f-11f0d464e661}, !- Handle
  FEMP,                                   !- Analysis Type
  ,                                       !- Discounting Convention
  ,                                       !- Inflation Approach
  ,                                       !- Real Discount Rate
  ,                                       !- Nominal Discount Rate
  ,                                       !- Inflation
  ,                                       !- Base Date Month
  ,                                       !- Base Date Year
  ,                                       !- Service Date Month
  ,                                       !- Service Date Year
  ,                                       !- Length of Study Period in Years
  ,                                       !- Tax Rate
  ,                                       !- Depreciation Method
  Yes;                                    !- Use NIST Fuel Escalation Rates

OS:Facility,
  {3ba8e45b-b833-44eb-a723-ea6c3946dc96}; !- Handle

OS:SpaceType,
  {b9392ce0-2a5b-4695-a0bf-576032a75477}, !- Handle
  Outpatient|BlendCirc|DOE Ref Pre-1980|ASHRAE 169-2006-5A, !- Name
  {89c8fadc-389c-4ba3-b2dd-316867dea3d2}, !- Default Construction Set Name
  ,                                       !- Default Schedule Set Name
  {944cb2e8-997b-429d-a8f0-a8aba637d321}, !- Group Rendering Name
  {91667b66-3c7f-4a7f-b5c6-dd2fbe63d17c}, !- Design Specification Outdoor Air Object Name
  Outpatient,                             !- Standards Building Type
  BlendCirc;                              !- Standards Space Type

OS:Rendering:Color,
  {944cb2e8-997b-429d-a8f0-a8aba637d321}, !- Handle
  Rendering Color 1,                      !- Name
  169,                                    !- Rendering Red Value
  31,                                     !- Rendering Green Value
  31;                                     !- Rendering Blue Value

OS:SpaceType,
  {63dc6cf3-0433-4485-8169-08a0357267db}, !- Handle
  Outpatient|BlendOff|DOE Ref Pre-1980|ASHRAE 169-2006-5A, !- Name
  {89c8fadc-389c-4ba3-b2dd-316867dea3d2}, !- Default Construction Set Name
  ,                                       !- Default Schedule Set Name
  {732bfbf5-69ce-41a4-8512-703deb09263c}, !- Group Rendering Name
  {9fe0c145-a425-4065-9c0f-63b7ad7fbadd}, !- Design Specification Outdoor Air Object Name
  Outpatient,                             !- Standards Building Type
  BlendOff;                               !- Standards Space Type

OS:Rendering:Color,
  {732bfbf5-69ce-41a4-8512-703deb09263c}, !- Handle
  Rendering Color 2,                      !- Name
  120,                                    !- Rendering Red Value
  230,                                    !- Rendering Green Value
  199;                                    !- Rendering Blue Value

OS:SpaceType,
  {54808784-1be7-4a7f-9e0a-df3cc3491d93}, !- Handle
  Outpatient|BlendPat|DOE Ref Pre-1980|ASHRAE 169-2006-5A, !- Name
  {89c8fadc-389c-4ba3-b2dd-316867dea3d2}, !- Default Construction Set Name
  ,                                       !- Default Schedule Set Name
  {259f18cd-9cb5-43bd-8521-ee4e17a340dd}, !- Group Rendering Name
  {5b3735ce-7cc9-4ff3-b756-43fe101cd3f8}, !- Design Specification Outdoor Air Object Name
  Outpatient,                             !- Standards Building Type
  BlendPat;                               !- Standards Space Type

OS:Rendering:Color,
  {259f18cd-9cb5-43bd-8521-ee4e17a340dd}, !- Handle
  Rendering Color 3,                      !- Name
  136,                                    !- Rendering Red Value
  78,                                     !- Rendering Green Value
  222;                                    !- Rendering Blue Value

OS:SpaceType,
  {16b8a782-ea31-4c37-b227-7fd8380311e8}, !- Handle
  Outpatient|BlendImg|DOE Ref Pre-1980|ASHRAE 169-2006-5A, !- Name
  {89c8fadc-389c-4ba3-b2dd-316867dea3d2}, !- Default Construction Set Name
  ,                                       !- Default Schedule Set Name
  {1616025b-5433-42b8-b209-57cb8ff39f46}, !- Group Rendering Name
  {9d00b2ba-990a-400a-9657-9336ee6c5c6e}, !- Design Specification Outdoor Air Object Name
  Outpatient,                             !- Standards Building Type
  BlendImg;                               !- Standards Space Type

OS:Rendering:Color,
  {1616025b-5433-42b8-b209-57cb8ff39f46}, !- Handle
  Rendering Color 4,                      !- Name
  169,                                    !- Rendering Red Value
  31,                                     !- Rendering Green Value
  159;                                    !- Rendering Blue Value

OS:SpaceType,
  {858cd728-6f74-40c4-a11a-ab7d1a9f5be7}, !- Handle
  Outpatient|BlendMedStg|DOE Ref Pre-1980|ASHRAE 169-2006-5A, !- Name
  {89c8fadc-389c-4ba3-b2dd-316867dea3d2}, !- Default Construction Set Name
  ,                                       !- Default Schedule Set Name
  {00c7b43f-ffde-41d3-ba4e-aa113742bf5d}, !- Group Rendering Name
  {7a95ff89-84a6-424d-abae-fd2efab0f2d7}, !- Design Specification Outdoor Air Object Name
  Outpatient,                             !- Standards Building Type
  BlendMedStg;                            !- Standards Space Type

OS:Rendering:Color,
  {00c7b43f-ffde-41d3-ba4e-aa113742bf5d}, !- Handle
  Rendering Color 5,                      !- Name
  204,                                    !- Rendering Red Value
  120,                                    !- Rendering Green Value
  230;                                    !- Rendering Blue Value

OS:SpaceType,
  {ba57ac7c-ed0c-41a6-8bbe-326f67df1d1d}, !- Handle
  Outpatient|BlendMisc|DOE Ref Pre-1980|ASHRAE 169-2006-5A, !- Name
  {89c8fadc-389c-4ba3-b2dd-316867dea3d2}, !- Default Construction Set Name
  ,                                       !- Default Schedule Set Name
  {0a9fe359-2deb-4801-83a4-38be27db55b6}, !- Group Rendering Name
  {cebe6f7f-4d88-4398-b16e-50a6b3cab3ff}, !- Design Specification Outdoor Air Object Name
  Outpatient,                             !- Standards Building Type
  BlendMisc;                              !- Standards Space Type

OS:Rendering:Color,
  {0a9fe359-2deb-4801-83a4-38be27db55b6}, !- Handle
  Rendering Color 6,                      !- Name
  120,                                    !- Rendering Red Value
  149,                                    !- Rendering Green Value
  230;                                    !- Rendering Blue Value

OS:Schedule:Ruleset,
  {a5bed5ec-fad9-4fc0-9914-28b08ed15b9e}, !- Handle
  0400|2200|Outpatient|default|hoo,       !- Name
  {97176c2c-8992-4eff-b64c-ab9220c4e422}, !- Schedule Type Limits Name
  {f6b47fc3-ebf3-4a92-aeda-236e1cdbdc4a}, !- Default Day Schedule Name
  {9c0ba6a2-af0e-4c63-8300-67067c1167bd}, !- Summer Design Day Schedule Name
  {2e65d6c3-531b-43dd-9f14-ad860f1f0919}; !- Winter Design Day Schedule Name

OS:Schedule:Day,
  {f6b47fc3-ebf3-4a92-aeda-236e1cdbdc4a}, !- Handle
  0400|2200|Outpatient|default|hoo Schedule Week Day, !- Name
  {97176c2c-8992-4eff-b64c-ab9220c4e422}, !- Schedule Type Limits Name
  ,                                       !- Interpolate to Timestep
  4,                                      !- Hour 1
  0,                                      !- Minute 1
  0,                                      !- Value Until Time 1
  22,                                     !- Hour 2
  0,                                      !- Minute 2
  1,                                      !- Value Until Time 2
  24,                                     !- Hour 3
  0,                                      !- Minute 3
  0;                                      !- Value Until Time 3

OS:Schedule:Day,
  {73305cc7-a077-47ba-92b5-b6b11375a7c7}, !- Handle
  Schedule Day 2,                         !- Name
  ,                                       !- Schedule Type Limits Name
  ,                                       !- Interpolate to Timestep
  24,                                     !- Hour 1
  0,                                      !- Minute 1
  0;                                      !- Value Until Time 1

OS:Schedule:Day,
  {2e65d6c3-531b-43dd-9f14-ad860f1f0919}, !- Handle
  0400|2200|Outpatient|default|hoo Winter Design Day, !- Name
  {97176c2c-8992-4eff-b64c-ab9220c4e422}, !- Schedule Type Limits Name
  ,                                       !- Interpolate to Timestep
  24,                                     !- Hour 1
  0,                                      !- Minute 1
  0;                                      !- Value Until Time 1

OS:Schedule:Day,
  {84d8fc3a-b9a9-45f2-8277-a3e331074866}, !- Handle
  Schedule Day 3,                         !- Name
  ,                                       !- Schedule Type Limits Name
  ,                                       !- Interpolate to Timestep
  24,                                     !- Hour 1
  0,                                      !- Minute 1
  0;                                      !- Value Until Time 1

OS:Schedule:Day,
  {9c0ba6a2-af0e-4c63-8300-67067c1167bd}, !- Handle
  0400|2200|Outpatient|default|hoo Summer Design Day, !- Name
  {97176c2c-8992-4eff-b64c-ab9220c4e422}, !- Schedule Type Limits Name
  ,                                       !- Interpolate to Timestep
  24,                                     !- Hour 1
  0,                                      !- Minute 1
  1;                                      !- Value Until Time 1

OS:DefaultScheduleSet,
  {1b010a8f-e032-49b5-8ac9-c5174282b1a8}, !- Handle
  Building Hours of Operation,            !- Name
  {a5bed5ec-fad9-4fc0-9914-28b08ed15b9e}, !- Hours of Operation Schedule Name
  ,                                       !- Number of People Schedule Name
  ,                                       !- People Activity Level Schedule Name
  ,                                       !- Lighting Schedule Name
  ,                                       !- Electric Equipment Schedule Name
  ,                                       !- Gas Equipment Schedule Name
  ,                                       !- Hot Water Equipment Schedule Name
  ,                                       !- Infiltration Schedule Name
  ,                                       !- Steam Equipment Schedule Name
  ;                                       !- Other Equipment Schedule Name

OS:ScheduleTypeLimits,
  {97176c2c-8992-4eff-b64c-ab9220c4e422}, !- Handle
  OnOff,                                  !- Name
  0,                                      !- Lower Limit Value {BasedOnField A4}
  1,                                      !- Upper Limit Value {BasedOnField A4}
  Discrete,                               !- Numeric Type
  Availability;                           !- Unit Type

OS:Schedule:Ruleset,
  {582f17ec-009a-4f2a-a891-f2eb82cd121a}, !- Handle
  0400|2200|Outpatient|default|gas_equip, !- Name
  {99847add-e9db-4bc6-b746-5ad11255cd04}, !- Schedule Type Limits Name
  {7ad571d2-2d5a-437a-a033-e59a97304796}, !- Default Day Schedule Name
  {5b51080f-eeaa-449a-a01c-a793e4d57bc9}, !- Summer Design Day Schedule Name
  {21af3b81-cd4d-4e58-8d45-362254f3f222}; !- Winter Design Day Schedule Name

OS:ScheduleTypeLimits,
  {99847add-e9db-4bc6-b746-5ad11255cd04}, !- Handle
  Equipment Schedule Type Limits,         !- Name
  0,                                      !- Lower Limit Value {BasedOnField A4}
  1,                                      !- Upper Limit Value {BasedOnField A4}
  Continuous,                             !- Numeric Type
  Dimensionless;                          !- Unit Type

OS:Schedule:Day,
  {7ad571d2-2d5a-437a-a033-e59a97304796}, !- Handle
  0400|2200|Outpatient|default|gas_equip |default, !- Name
  {99847add-e9db-4bc6-b746-5ad11255cd04}, !- Schedule Type Limits Name
  ,                                       !- Interpolate to Timestep
  4,                                      !- Hour 1
  0,                                      !- Minute 1
  0.3,                                    !- Value Until Time 1
  6,                                      !- Hour 2
  0,                                      !- Minute 2
  0.5,                                    !- Value Until Time 2
  18,                                     !- Hour 3
  0,                                      !- Minute 3
  1,                                      !- Value Until Time 3
  20,                                     !- Hour 4
  0,                                      !- Minute 4
  0.5,                                    !- Value Until Time 4
  24,                                     !- Hour 5
  0,                                      !- Minute 5
  0.3;                                    !- Value Until Time 5

OS:Schedule:Day,
  {5b51080f-eeaa-449a-a01c-a793e4d57bc9}, !- Handle
  0400|2200|Outpatient|default|gas_equip Summer Design Day, !- Name
  {99847add-e9db-4bc6-b746-5ad11255cd04}, !- Schedule Type Limits Name
  ,                                       !- Interpolate to Timestep
  24,                                     !- Hour 1
  0,                                      !- Minute 1
  1;                                      !- Value Until Time 1

OS:Schedule:Day,
  {21af3b81-cd4d-4e58-8d45-362254f3f222}, !- Handle
  0400|2200|Outpatient|default|gas_equip Winter Design Day, !- Name
  {99847add-e9db-4bc6-b746-5ad11255cd04}, !- Schedule Type Limits Name
  ,                                       !- Interpolate to Timestep
  24,                                     !- Hour 1
  0,                                      !- Minute 1
  0.3;                                    !- Value Until Time 1

OS:Schedule:Rule,
  {5542bffe-60dd-4e3c-bca1-e015ccaaa5da}, !- Handle
  0400|2200|Outpatient|default|gas_equip |1/1-12/31|Sat Rule, !- Name
  {582f17ec-009a-4f2a-a891-f2eb82cd121a}, !- Schedule Ruleset Name
  0,                                      !- Rule Order
  {bccb5e91-c552-4e37-a251-8e85920b6b0f}, !- Day Schedule Name
  ,                                       !- Apply Sunday
  ,                                       !- Apply Monday
  ,                                       !- Apply Tuesday
  ,                                       !- Apply Wednesday
  ,                                       !- Apply Thursday
  ,                                       !- Apply Friday
  Yes,                                    !- Apply Saturday
  ,                                       !- Apply Holiday
  DateRange,                              !- Date Specification Type
  1,                                      !- Start Month
  1,                                      !- Start Day
  12,                                     !- End Month
  31;                                     !- End Day

OS:Schedule:Day,
  {bccb5e91-c552-4e37-a251-8e85920b6b0f}, !- Handle
  0400|2200|Outpatient|default|gas_equip |1/1-12/31|Sat, !- Name
  {99847add-e9db-4bc6-b746-5ad11255cd04}, !- Schedule Type Limits Name
  ,                                       !- Interpolate to Timestep
  7,                                      !- Hour 1
  0,                                      !- Minute 1
  0.3,                                    !- Value Until Time 1
  9,                                      !- Hour 2
  0,                                      !- Minute 2
  0.5,                                    !- Value Until Time 2
  15,                                     !- Hour 3
  0,                                      !- Minute 3
  0.8,                                    !- Value Until Time 3
  20,                                     !- Hour 4
  0,                                      !- Minute 4
  0.5,                                    !- Value Until Time 4
  24,                                     !- Hour 5
  0,                                      !- Minute 5
  0.3;                                    !- Value Until Time 5

OS:Schedule:Rule,
  {b572930e-6d9b-4535-8945-03c3f593c308}, !- Handle
  0400|2200|Outpatient|default|gas_equip |1/1-12/31|Sun Rule, !- Name
  {582f17ec-009a-4f2a-a891-f2eb82cd121a}, !- Schedule Ruleset Name
  1,                                      !- Rule Order
  {212e65c2-7817-4355-8039-47b373c53bc7}, !- Day Schedule Name
  Yes,                                    !- Apply Sunday
  ,                                       !- Apply Monday
  ,                                       !- Apply Tuesday
  ,                                       !- Apply Wednesday
  ,                                       !- Apply Thursday
  ,                                       !- Apply Friday
  ,                                       !- Apply Saturday
  ,                                       !- Apply Holiday
  DateRange,                              !- Date Specification Type
  1,                                      !- Start Month
  1,                                      !- Start Day
  12,                                     !- End Month
  31;                                     !- End Day

OS:Schedule:Day,
  {212e65c2-7817-4355-8039-47b373c53bc7}, !- Handle
  0400|2200|Outpatient|default|gas_equip |1/1-12/31|Sun, !- Name
  {99847add-e9db-4bc6-b746-5ad11255cd04}, !- Schedule Type Limits Name
  ,                                       !- Interpolate to Timestep
  8,                                      !- Hour 1
  0,                                      !- Minute 1
  0.3,                                    !- Value Until Time 1
  17,                                     !- Hour 2
  0,                                      !- Minute 2
  0.5,                                    !- Value Until Time 2
  24,                                     !- Hour 3
  0,                                      !- Minute 3
  0.3;                                    !- Value Until Time 3

OS:Schedule:Ruleset,
  {71d62567-3f06-42da-9753-c00edcb48669}, !- Handle
  0400|2200|Outpatient|default|htg_setpoint, !- Name
  {69d0d004-d7c7-49ee-90aa-02368a40c97e}, !- Schedule Type Limits Name
  {a7d73964-691a-45b2-8d8a-174cb660af56}, !- Default Day Schedule Name
  {fdecf060-cd3a-4e8d-b073-f2dbbc8b29cf}, !- Summer Design Day Schedule Name
  {a2dadbfd-3dcc-4a66-a1c0-b24e49c04b3d}; !- Winter Design Day Schedule Name

OS:ScheduleTypeLimits,
  {69d0d004-d7c7-49ee-90aa-02368a40c97e}, !- Handle
  Thermostat Heating Setpoint Schedule Type Limits, !- Name
  0,                                      !- Lower Limit Value {BasedOnField A4}
  100,                                    !- Upper Limit Value {BasedOnField A4}
  Continuous,                             !- Numeric Type
  Temperature;                            !- Unit Type

OS:Schedule:Day,
  {a7d73964-691a-45b2-8d8a-174cb660af56}, !- Handle
  0400|2200|Outpatient|default|htg_setpoint |default, !- Name
  {69d0d004-d7c7-49ee-90aa-02368a40c97e}, !- Schedule Type Limits Name
  ,                                       !- Interpolate to Timestep
  24,                                     !- Hour 1
  0,                                      !- Minute 1
  21.1;                                   !- Value Until Time 1

OS:Schedule:Day,
  {fdecf060-cd3a-4e8d-b073-f2dbbc8b29cf}, !- Handle
  0400|2200|Outpatient|default|htg_setpoint Summer Design Day, !- Name
  {69d0d004-d7c7-49ee-90aa-02368a40c97e}, !- Schedule Type Limits Name
  ,                                       !- Interpolate to Timestep
  24,                                     !- Hour 1
  0,                                      !- Minute 1
  21.1;                                   !- Value Until Time 1

OS:Schedule:Day,
  {a2dadbfd-3dcc-4a66-a1c0-b24e49c04b3d}, !- Handle
  0400|2200|Outpatient|default|htg_setpoint Winter Design Day, !- Name
  {69d0d004-d7c7-49ee-90aa-02368a40c97e}, !- Schedule Type Limits Name
  ,                                       !- Interpolate to Timestep
  24,                                     !- Hour 1
  0,                                      !- Minute 1
  21.1;                                   !- Value Until Time 1

OS:Schedule:Rule,
  {dec1344a-c96c-4340-8a13-9f13f187f821}, !- Handle
  0400|2200|Outpatient|default|htg_setpoint |1/1-12/31|Sat/Sun Rule, !- Name
  {71d62567-3f06-42da-9753-c00edcb48669}, !- Schedule Ruleset Name
  0,                                      !- Rule Order
  {2fe10716-edc9-4933-9049-fdf9bbbafd9b}, !- Day Schedule Name
  Yes,                                    !- Apply Sunday
  ,                                       !- Apply Monday
  ,                                       !- Apply Tuesday
  ,                                       !- Apply Wednesday
  ,                                       !- Apply Thursday
  ,                                       !- Apply Friday
  Yes,                                    !- Apply Saturday
  ,                                       !- Apply Holiday
  DateRange,                              !- Date Specification Type
  1,                                      !- Start Month
  1,                                      !- Start Day
  12,                                     !- End Month
  31;                                     !- End Day

OS:Schedule:Day,
  {2fe10716-edc9-4933-9049-fdf9bbbafd9b}, !- Handle
  0400|2200|Outpatient|default|htg_setpoint |1/1-12/31|Sat/Sun, !- Name
  {69d0d004-d7c7-49ee-90aa-02368a40c97e}, !- Schedule Type Limits Name
  ,                                       !- Interpolate to Timestep
  24,                                     !- Hour 1
  0,                                      !- Minute 1
  18.3;                                   !- Value Until Time 1

OS:Schedule:Ruleset,
  {e139e71d-1621-4836-bfb6-da0cd925b01b}, !- Handle
  0400|2200|Outpatient|default|swh_target_temp, !- Name
  {051d7e96-5050-4de6-9d44-8fcfecd4deda}, !- Schedule Type Limits Name
  {90239749-13ab-44cb-973e-293ff1b74414}, !- Default Day Schedule Name
  {11d27680-763b-4141-9a32-f0aeba783adc}, !- Summer Design Day Schedule Name
  {1ed7170f-d673-499b-be06-efd0e715424b}; !- Winter Design Day Schedule Name

OS:ScheduleTypeLimits,
  {051d7e96-5050-4de6-9d44-8fcfecd4deda}, !- Handle
  Temperature Schedule Type Limits,       !- Name
  ,                                       !- Lower Limit Value {BasedOnField A4}
  ,                                       !- Upper Limit Value {BasedOnField A4}
  Continuous,                             !- Numeric Type
  Temperature;                            !- Unit Type

OS:Schedule:Day,
  {90239749-13ab-44cb-973e-293ff1b74414}, !- Handle
  0400|2200|Outpatient|default|swh_target_temp |default, !- Name
  {051d7e96-5050-4de6-9d44-8fcfecd4deda}, !- Schedule Type Limits Name
  ,                                       !- Interpolate to Timestep
  24,                                     !- Hour 1
  0,                                      !- Minute 1
  60.0000000000001;                       !- Value Until Time 1

OS:Schedule:Day,
  {11d27680-763b-4141-9a32-f0aeba783adc}, !- Handle
  0400|2200|Outpatient|default|swh_target_temp Summer Design Day, !- Name
  {051d7e96-5050-4de6-9d44-8fcfecd4deda}, !- Schedule Type Limits Name
  ,                                       !- Interpolate to Timestep
  24,                                     !- Hour 1
  0,                                      !- Minute 1
  60.0000000000001;                       !- Value Until Time 1

OS:Schedule:Day,
  {1ed7170f-d673-499b-be06-efd0e715424b}, !- Handle
  0400|2200|Outpatient|default|swh_target_temp Winter Design Day, !- Name
  {051d7e96-5050-4de6-9d44-8fcfecd4deda}, !- Schedule Type Limits Name
  ,                                       !- Interpolate to Timestep
  24,                                     !- Hour 1
  0,                                      !- Minute 1
  60.0000000000001;                       !- Value Until Time 1

OS:Schedule:Ruleset,
  {789351ff-7752-4889-894e-6771a3ac9243}, !- Handle
  0400|2200|Outpatient|default|occ,       !- Name
  {05e0f6d1-d3c9-4073-80fc-9d9d54a69248}, !- Schedule Type Limits Name