
OS:Version,
  {3943876f-fa5f-48a9-a5b3-dd999e920e97}, !- Handle
  1.5.5;                                  !- Version Identifier

OS:ClimateZones,
  {135edfab-17e7-40db-a436-27d385a8cd6d}, !- Handle
  ,                                       !- Active Institution
  ,                                       !- Active Year
  ASHRAE,                                 !- Climate Zone Institution Name 1
  ANSI/ASHRAE Standard 169,               !- Climate Zone Document Name 1
  2006,                                   !- Climate Zone Document Year 1
  ,                                       !- Climate Zone Value 1
  CEC,                                    !- Climate Zone Institution Name 2
  California Climate Zone Descriptions,   !- Climate Zone Document Name 2
  1995,                                   !- Climate Zone Document Year 2
  ;                                       !- Climate Zone Value 2

OS:YearDescription,
  {513d8dda-86cb-442a-b01c-1f7f0e0ac70e}; !- Handle

OS:RadianceParameters,
  {270a96f1-3c86-4b75-a667-cdf22790e2c8}, !- Handle
  1,                                      !- Accumulated Rays per Record
  0,                                      !- Direct Threshold
  1,                                      !- Direct Certainty
  1,                                      !- Direct Jitter
  1,                                      !- Direct Pretest
  6,                                      !- Ambient Bounces VMX
  2,                                      !- Ambient Bounces DMX
  4050,                                   !- Ambient Divisions VMX
  512,                                    !- Ambient Divisions DMX
  256,                                    !- Ambient Supersamples
  0.001,                                  !- Limit Weight VMX
  0.001,                                  !- Limit Weight DMX
  500,                                    !- Klems Sampling Density
  146;                                    !- Sky Discretization Resolution

OS:SimulationControl,
  {2c487a4c-bac9-4ac5-b669-1e49d9da7c2b}, !- Handle
  ,                                       !- Do Zone Sizing Calculation
  ,                                       !- Do System Sizing Calculation
  ,                                       !- Do Plant Sizing Calculation
  No,                                     !- Run Simulation for Sizing Periods
  ,                                       !- Run Simulation for Weather File Run Periods
  0.04,                                   !- Loads Convergence Tolerance Value
  ,                                       !- Temperature Convergence Tolerance Value {deltaC}
  ,                                       !- Solar Distribution
  ,                                       !- Maximum Number of Warmup Days
  2;                                      !- Minimum Number of Warmup Days

OS:Sizing:Parameters,
  {dde5af6f-7923-4600-a28a-7556673a0266}, !- Handle
  1.25,                                   !- Heating Sizing Factor
  1.15;                                   !- Cooling Sizing Factor

OS:ProgramControl,
  {05027a99-f2b3-4aeb-afc6-1425fbb4371d}; !- Handle

OS:Timestep,
  {4ebc9f1e-4707-402e-9844-67eb1ffbd522}, !- Handle
  2;                                      !- Number of Timesteps per Hour

OS:OutputControl:ReportingTolerances,
  {65797aa2-06a9-45fe-b69d-bc6e060399d3}; !- Handle

OS:ConvergenceLimits,
  {9fc11aba-8822-4f3d-970c-46391ba4040d}; !- Handle

OS:ShadowCalculation,
  {ca758bea-4416-4626-9bba-3d8795c79bd6}, !- Handle
  7,                                      !- Calculation Frequency
  15000;                                  !- Maximum Figures in Shadow Overlap Calculations

OS:SurfaceConvectionAlgorithm:Inside,
  {aaabfc36-718a-4ab0-b622-f186ebb45230}, !- Handle
  TARP;                                   !- Algorithm

OS:SurfaceConvectionAlgorithm:Outside,
  {9a0a9f6f-4bbd-4b12-a121-9492a1fcd7d6}, !- Handle
  DOE-2;                                  !- Algorithm

OS:HeatBalanceAlgorithm,
  {9d93e563-e1e0-46d7-9e39-d1c8aceb7212}, !- Handle
  ConductionTransferFunction,             !- Algorithm
  200;                                    !- Surface Temperature Upper Limit {F}

OS:ZoneAirHeatBalanceAlgorithm,
  {8520d93e-310f-4696-9bcd-36228bfdd743}, !- Handle
  AnalyticalSolution;                     !- Algorithm

OS:ZoneAirContaminantBalance,
  {eb5fc3ae-fb22-4160-8fcb-3e3b22b000d3}; !- Handle

OS:ZoneCapacitanceMultiplier:ResearchSpecial,
  {4020ce4f-5a7a-4849-8028-8305d7b751b1}, !- Handle
  ,                                       !- Temperature Capacity Multiplier
  ,                                       !- Humidity Capacity Multiplier
  ;                                       !- Carbon Dioxide Capacity Multiplier

OS:RunPeriod,
  {28df894d-6af9-4fb8-8f56-df1753344aa3}, !- Handle
  Run Period 1,                           !- Name
  1,                                      !- Begin Month
  1,                                      !- Begin Day of Month
  12,                                     !- End Month
  31,                                     !- End Day of Month
  ,                                       !- Use Weather File Holidays and Special Days
  ,                                       !- Use Weather File Daylight Saving Period
  ,                                       !- Apply Weekend Holiday Rule
  ,                                       !- Use Weather File Rain Indicators
  ,                                       !- Use Weather File Snow Indicators
  ;                                       !- Number of Times Runperiod to be Repeated

OS:Building,
  {bf305633-c5a1-4881-9edf-ca5e1a8e1274}, !- Handle
  Building 1,                             !- Name
  ,                                       !- Building Sector Type
  ,                                       !- North Axis {deg}
  ,                                       !- Nominal Floor to Floor Height {m}
  ,                                       !- Space Type Name
  ,                                       !- Default Construction Set Name
  {4a2e6afd-020f-4adf-8ba8-22bd6c35bb6d}, !- Default Schedule Set Name
  ,                                       !- Standards Number of Stories
  ,                                       !- Standards Number of Above Ground Stories
  Outpatient;                             !- Standards Building Type

OS:LifeCycleCost:Parameters,
  {231cf8a0-f0e7-4251-a99f-11f0d464e661}, !- Handle
  FEMP,                                   !- Analysis Type
  ,                                       !- Discounting Convention
  ,                                       !- Inflation Approach
  ,                                       !- Real Discount Rate
  ,                                       !- Nominal Discount Rate
  ,                                       !- Inflation
  ,                                       !- Base Date Month
  ,                                       !- Base Date Year
  ,                                       !- Service Date Month
  ,                                       !- Service Date Year
  ,                                       !- Length of Study Period in Years
  ,                                       !- Tax Rate
  ,                                       !- Depreciation Method
  Yes;                                    !- Use NIST Fuel Escalation Rates

OS:Facility,
  {3ba8e45b-b833-44eb-a723-ea6c3946dc96}; !- Handle

OS:SpaceType,
  {b739b36a-84ca-4a02-aed2-d8d5721d4d7c}, !- Handle
  Outpatient|BlendCirc|DOE Ref 1980-2004|ASHRAE 169-2006-5A, !- Name
  {a1f4484e-ace1-44ed-8a52-c95cd4c9a209}, !- Default Construction Set Name
  ,                                       !- Default Schedule Set Name
  {dae2b7e2-b3d7-4765-9e6d-45bb13cc4508}, !- Group Rendering Name
  {cb687217-e59d-43e0-82af-1f9f9bca6c51}, !- Design Specification Outdoor Air Object Name
  Outpatient,                             !- Standards Building Type
  BlendCirc;                              !- Standards Space Type

OS:Rendering:Color,
  {dae2b7e2-b3d7-4765-9e6d-45bb13cc4508}, !- Handle
  Rendering Color 1,                      !- Name
  169,                                    !- Rendering Red Value
  31,                                     !- Rendering Green Value
  31;                                     !- Rendering Blue Value

OS:SpaceType,
  {0b165a5e-fbcf-4b17-ba55-e9dddb092edd}, !- Handle
  Outpatient|BlendOff|DOE Ref 1980-2004|ASHRAE 169-2006-5A, !- Name
  {a1f4484e-ace1-44ed-8a52-c95cd4c9a209}, !- Default Construction Set Name
  ,                                       !- Default Schedule Set Name
  {948bf422-9d93-4ed4-b581-94c73f53eb89}, !- Group Rendering Name
  {a8a1342e-f0a4-4c23-8062-8c1fe2366334}, !- Design Specification Outdoor Air Object Name
  Outpatient,                             !- Standards Building Type
  BlendOff;                               !- Standards Space Type

OS:Rendering:Color,
  {948bf422-9d93-4ed4-b581-94c73f53eb89}, !- Handle
  Rendering Color 2,                      !- Name
  120,                                    !- Rendering Red Value
  230,                                    !- Rendering Green Value
  199;                                    !- Rendering Blue Value

OS:SpaceType,
  {4f2b6368-2443-4ef2-a9bd-ecdc555c5e94}, !- Handle
  Outpatient|BlendPat|DOE Ref 1980-2004|ASHRAE 169-2006-5A, !- Name
  {a1f4484e-ace1-44ed-8a52-c95cd4c9a209}, !- Default Construction Set Name
  ,                                       !- Default Schedule Set Name
  {da09f1fd-a600-4ed5-9078-9b6541921372}, !- Group Rendering Name
  {28728c56-cafd-4289-b3e1-944ed5dc8ac7}, !- Design Specification Outdoor Air Object Name
  Outpatient,                             !- Standards Building Type
  BlendPat;                               !- Standards Space Type

OS:Rendering:Color,
  {da09f1fd-a600-4ed5-9078-9b6541921372}, !- Handle
  Rendering Color 3,                      !- Name
  136,                                    !- Rendering Red Value
  78,                                     !- Rendering Green Value
  222;                                    !- Rendering Blue Value

OS:SpaceType,
  {c9433ba5-29d1-420d-9a2c-56a83f5c6b77}, !- Handle
  Outpatient|BlendImg|DOE Ref 1980-2004|ASHRAE 169-2006-5A, !- Name
  {a1f4484e-ace1-44ed-8a52-c95cd4c9a209}, !- Default Construction Set Name
  ,                                       !- Default Schedule Set Name
  {a92a52ce-aa37-42fc-9037-b4b0a40e0fad}, !- Group Rendering Name
  {bcd050f5-b32a-4fc3-93af-85dfba567ed9}, !- Design Specification Outdoor Air Object Name
  Outpatient,                             !- Standards Building Type
  BlendImg;                               !- Standards Space Type

OS:Rendering:Color,
  {a92a52ce-aa37-42fc-9037-b4b0a40e0fad}, !- Handle
  Rendering Color 4,                      !- Name
  169,                                    !- Rendering Red Value
  31,                                     !- Rendering Green Value
  159;                                    !- Rendering Blue Value

OS:SpaceType,
  {e0ce9662-aadd-48a5-83ed-4591cd8e2419}, !- Handle
  Outpatient|BlendMedStg|DOE Ref 1980-2004|ASHRAE 169-2006-5A, !- Name
  {a1f4484e-ace1-44ed-8a52-c95cd4c9a209}, !- Default Construction Set Name
  ,                                       !- Default Schedule Set Name
  {bdc2f28f-4fcc-46cf-9949-930c53c472b1}, !- Group Rendering Name
  {966f642f-600f-4755-8c3c-86254984b375}, !- Design Specification Outdoor Air Object Name
  Outpatient,                             !- Standards Building Type
  BlendMedStg;                            !- Standards Space Type

OS:Rendering:Color,
  {bdc2f28f-4fcc-46cf-9949-930c53c472b1}, !- Handle
  Rendering Color 5,                      !- Name
  204,                                    !- Rendering Red Value
  120,                                    !- Rendering Green Value
  230;                                    !- Rendering Blue Value

OS:SpaceType,
  {234515ba-0bbf-4a53-8545-3dee69e51cf2}, !- Handle
  Outpatient|BlendMisc|DOE Ref 1980-2004|ASHRAE 169-2006-5A, !- Name
  {a1f4484e-ace1-44ed-8a52-c95cd4c9a209}, !- Default Construction Set Name
  ,                                       !- Default Schedule Set Name
  {b70438f5-80dc-43ab-b21c-81ec46346732}, !- Group Rendering Name
  {489b337c-9797-4ae2-9195-fcf81ec8e716}, !- Design Specification Outdoor Air Object Name
  Outpatient,                             !- Standards Building Type
  BlendMisc;                              !- Standards Space Type

OS:Rendering:Color,
  {b70438f5-80dc-43ab-b21c-81ec46346732}, !- Handle
  Rendering Color 6,                      !- Name
  120,                                    !- Rendering Red Value
  149,                                    !- Rendering Green Value
  230;                                    !- Rendering Blue Value

OS:Schedule:Ruleset,
  {e8c6e91a-a049-4270-9e2d-f13208fa3873}, !- Handle
  0400|2200|Outpatient|default|hoo,       !- Name
  {0367c37d-2b22-4b5c-92b6-4aa1da13f3e0}, !- Schedule Type Limits Name
  {1c9f2378-4ca1-4d14-851c-2e7b48be2189}, !- Default Day Schedule Name
  {ad505507-babe-4c07-8df9-2cb82ce23901}, !- Summer Design Day Schedule Name
  {67ed3617-443a-444b-9469-08e8d78b29ad}; !- Winter Design Day Schedule Name

OS:Schedule:Day,
  {1c9f2378-4ca1-4d14-851c-2e7b48be2189}, !- Handle
  0400|2200|Outpatient|default|hoo Schedule Week Day, !- Name
  {0367c37d-2b22-4b5c-92b6-4aa1da13f3e0}, !- Schedule Type Limits Name
  ,                                       !- Interpolate to Timestep
  4,                                      !- Hour 1
  0,                                      !- Minute 1
  0,                                      !- Value Until Time 1
  22,                                     !- Hour 2
  0,                                      !- Minute 2
  1,                                      !- Value Until Time 2
  24,                                     !- Hour 3
  0,                                      !- Minute 3
  0;                                      !- Value Until Time 3

OS:Schedule:Day,
  {fb244f72-1c2b-4c0d-ab6a-09d82870a19f}, !- Handle
  Schedule Day 2,                         !- Name
  ,                                       !- Schedule Type Limits Name
  ,                                       !- Interpolate to Timestep
  24,                                     !- Hour 1
  0,                                      !- Minute 1
  0;                                      !- Value Until Time 1

OS:Schedule:Day,
  {67ed3617-443a-444b-9469-08e8d78b29ad}, !- Handle
  0400|2200|Outpatient|default|hoo Winter Design Day, !- Name
  {0367c37d-2b22-4b5c-92b6-4aa1da13f3e0}, !- Schedule Type Limits Name
  ,                                       !- Interpolate to Timestep
  24,                                     !- Hour 1
  0,                                      !- Minute 1
  0;                                      !- Value Until Time 1

OS:Schedule:Day,
  {e718f438-1fbd-4759-9f4d-7d1ea31265e5}, !- Handle
  Schedule Day 3,                         !- Name
  ,                                       !- Schedule Type Limits Name
  ,                                       !- Interpolate to Timestep
  24,                                     !- Hour 1
  0,                                      !- Minute 1
  0;                                      !- Value Until Time 1

OS:Schedule:Day,
  {ad505507-babe-4c07-8df9-2cb82ce23901}, !- Handle
  0400|2200|Outpatient|default|hoo Summer Design Day, !- Name
  {0367c37d-2b22-4b5c-92b6-4aa1da13f3e0}, !- Schedule Type Limits Name
  ,                                       !- Interpolate to Timestep
  24,                                     !- Hour 1
  0,                                      !- Minute 1
  1;                                      !- Value Until Time 1

OS:DefaultScheduleSet,
  {4a2e6afd-020f-4adf-8ba8-22bd6c35bb6d}, !- Handle
  Building Hours of Operation,            !- Name
  {e8c6e91a-a049-4270-9e2d-f13208fa3873}, !- Hours of Operation Schedule Name
  ,                                       !- Number of People Schedule Name
  ,                                       !- People Activity Level Schedule Name
  ,                                       !- Lighting Schedule Name
  ,                                       !- Electric Equipment Schedule Name
  ,                                       !- Gas Equipment Schedule Name
  ,                                       !- Hot Water Equipment Schedule Name
  ,                                       !- Infiltration Schedule Name
  ,                                       !- Steam Equipment Schedule Name
  ;                                       !- Other Equipment Schedule Name

OS:ScheduleTypeLimits,
  {0367c37d-2b22-4b5c-92b6-4aa1da13f3e0}, !- Handle
  OnOff,                                  !- Name
  0,                                      !- Lower Limit Value {BasedOnField A4}
  1,                                      !- Upper Limit Value {BasedOnField A4}
  Discrete,                               !- Numeric Type
  Availability;                           !- Unit Type

OS:Schedule:Ruleset,
  {0caa142c-8500-4e77-aa95-da626f5a4f35}, !- Handle
  0400|2200|Outpatient|default|work_eff,  !- Name
  {0d845a97-2a4d-46c4-905f-a293566f2615}, !- Schedule Type Limits Name
  {ec9d28f4-854b-4c8a-ad75-326d6d2bd6c5}, !- Default Day Schedule Name
  {140def26-201a-401d-b903-d3e5e687fc0e}, !- Summer Design Day Schedule Name
  {dc1c5b38-f700-4a30-aa13-83a438facfae}; !- Winter Design Day Schedule Name

OS:ScheduleTypeLimits,
  {0d845a97-2a4d-46c4-905f-a293566f2615}, !- Handle
  Fraction Schedule Type Limits,          !- Name
  0,                                      !- Lower Limit Value {BasedOnField A4}
  1,                                      !- Upper Limit Value {BasedOnField A4}
  Continuous,                             !- Numeric Type
  Dimensionless;                          !- Unit Type

OS:Schedule:Day,
  {ec9d28f4-854b-4c8a-ad75-326d6d2bd6c5}, !- Handle
  0400|2200|Outpatient|default|work_eff |default, !- Name
  {0d845a97-2a4d-46c4-905f-a293566f2615}, !- Schedule Type Limits Name
  ,                                       !- Interpolate to Timestep
  24,                                     !- Hour 1
  0,                                      !- Minute 1
  0;                                      !- Value Until Time 1

OS:Schedule:Day,
  {140def26-201a-401d-b903-d3e5e687fc0e}, !- Handle
  0400|2200|Outpatient|default|work_eff Summer Design Day, !- Name
  {0d845a97-2a4d-46c4-905f-a293566f2615}, !- Schedule Type Limits Name
  ,                                       !- Interpolate to Timestep
  24,                                     !- Hour 1
  0,                                      !- Minute 1
  0;                                      !- Value Until Time 1

OS:Schedule:Day,
  {dc1c5b38-f700-4a30-aa13-83a438facfae}, !- Handle
  0400|2200|Outpatient|default|work_eff Winter Design Day, !- Name
  {0d845a97-2a4d-46c4-905f-a293566f2615}, !- Schedule Type Limits Name
  ,                                       !- Interpolate to Timestep
  24,                                     !- Hour 1
  0,                                      !- Minute 1
  0;                                      !- Value Until Time 1

OS:Schedule:Ruleset,
  {aa2dcb14-195f-4514-890e-072fd29ad1f1}, !- Handle
  0400|2200|Outpatient|default|clg_setpoint, !- Name
  {67e711e4-efb3-4278-8f3e-480679692df2}, !- Schedule Type Limits Name
  {e7dfcbc9-b4ee-4c0b-9bc3-c2158804ba5d}, !- Default Day Schedule Name
  {8ea97a40-1995-4101-8588-411d59123956}, !- Summer Design Day Schedule Name
  {b83329db-02f2-4266-9882-4d735143a9a4}; !- Winter Design Day Schedule Name

OS:ScheduleTypeLimits,
  {67e711e4-efb3-4278-8f3e-480679692df2}, !- Handle
  Thermostat Cooling Setpoint Schedule Type Limits, !- Name
  0,                                      !- Lower Limit Value {BasedOnField A4}
  100,                                    !- Upper Limit Value {BasedOnField A4}
  Continuous,                             !- Numeric Type
  Temperature;                            !- Unit Type

OS:Schedule:Day,
  {e7dfcbc9-b4ee-4c0b-9bc3-c2158804ba5d}, !- Handle
  0400|2200|Outpatient|default|clg_setpoint |default, !- Name
  {67e711e4-efb3-4278-8f3e-480679692df2}, !- Schedule Type Limits Name
  ,                                       !- Interpolate to Timestep
  24,                                     !- Hour 1
  0,                                      !- Minute 1
  22.2;                                   !- Value Until Time 1

OS:Schedule:Day,
  {8ea97a40-1995-4101-8588-411d59123956}, !- Handle
  0400|2200|Outpatient|default|clg_setpoint Summer Design Day, !- Name
  {67e711e4-efb3-4278-8f3e-480679692df2}, !- Schedule Type Limits Name
  ,                                       !- Interpolate to Timestep
  24,                                     !- Hour 1
  0,                                      !- Minute 1
  22.2;                                   !- Value Until Time 1

OS:Schedule:Day,
  {b83329db-02f2-4266-9882-4d735143a9a4}, !- Handle
  0400|2200|Outpatient|default|clg_setpoint Winter Design Day, !- Name
  {67e711e4-efb3-4278-8f3e-480679692df2}, !- Schedule Type Limits Name
  ,                                       !- Interpolate to Timestep
  24,                                     !- Hour 1
  0,                                      !- Minute 1
  22.2;                                   !- Value Until Time 1

OS:Schedule:Rule,
  {84dbd84f-d065-48cf-acdc-01d2f8d6ce6b}, !- Handle
  0400|2200|Outpatient|default|clg_setpoint |1/1-12/31|Sat/Sun Rule, !- Name
  {aa2dcb14-195f-4514-890e-072fd29ad1f1}, !- Schedule Ruleset Name
  0,                                      !- Rule Order
  {c542d1ee-5aba-4c8d-bafd-211f4ce6e0f6}, !- Day Schedule Name
  Yes,                                    !- Apply Sunday
  ,                                       !- Apply Monday
  ,                                       !- Apply Tuesday
  ,                                       !- Apply Wednesday
  ,                                       !- Apply Thursday
  ,                                       !- Apply Friday
  Yes,                                    !- Apply Saturday
  ,                                       !- Apply Holiday
  DateRange,                              !- Date Specification Type
  1,                                      !- Start Month
  1,                                      !- Start Day
  12,                                     !- End Month
  31;                                     !- End Day

OS:Schedule:Day,
  {c542d1ee-5aba-4c8d-bafd-211f4ce6e0f6}, !- Handle
  0400|2200|Outpatient|default|clg_setpoint |1/1-12/31|Sat/Sun, !- Name
  {67e711e4-efb3-4278-8f3e-480679692df2}, !- Schedule Type Limits Name
  ,                                       !- Interpolate to Timestep
  24,                                     !- Hour 1
  0,                                      !- Minute 1
  25.0000000000001;                       !- Value Until Time 1

OS:Schedule:Ruleset,
  {4061eb9c-5a30-4641-9a94-a7504996fea0}, !- Handle
  0400|2200|Outpatient|default|hvac,      !- Name
  {15abeba0-f563-4eaa-8af0-a70528132a14}, !- Schedule Type Limits Name
  {531cfeb4-67c7-4890-9279-bd9bc1365753}, !- Default Day Schedule Name
  {e993be44-64d8-4acb-a1db-91f380a48744}, !- Summer Design Day Schedule Name
  {5081b845-1aa8-45fd-a786-103d9b994f13}; !- Winter Design Day Schedule Name

OS:ScheduleTypeLimits,
  {15abeba0-f563-4eaa-8af0-a70528132a14}, !- Handle
  HVAC Operation Schedule Type Limits,    !- Name
  0,                                      !- Lower Limit Value {BasedOnField A4}
  1,                                      !- Upper Limit Value {BasedOnField A4}
  Discrete,                               !- Numeric Type
  Availability;                           !- Unit Type

OS:Schedule:Day,
  {531cfeb4-67c7-4890-9279-bd9bc1365753}, !- Handle
  0400|2200|Outpatient|default|hvac |default, !- Name
  {15abeba0-f563-4eaa-8af0-a70528132a14}, !- Schedule Type Limits Name
  ,                                       !- Interpolate to Timestep
  24,                                     !- Hour 1
  0,                                      !- Minute 1
  1;                                      !- Value Until Time 1

OS:Schedule:Day,
  {e993be44-64d8-4acb-a1db-91f380a48744}, !- Handle
  0400|2200|Outpatient|default|hvac Summer Design Day, !- Name
  {15abeba0-f563-4eaa-8af0-a70528132a14}, !- Schedule Type Limits Name
  ,                                       !- Interpolate to Timestep
  24,                                     !- Hour 1
  0,                                      !- Minute 1
  1;                                      !- Value Until Time 1

OS:Schedule:Day,
  {5081b845-1aa8-45fd-a786-103d9b994f13}, !- Handle
  0400|2200|Outpatient|default|hvac Winter Design Day, !- Name
  {15abeba0-f563-4eaa-8af0-a70528132a14}, !- Schedule Type Limits Name
  ,                                       !- Interpolate to Timestep
  24,                                     !- Hour 1
  0,                                      !- Minute 1
  1;                                      !- Value Until Time 1

OS:Schedule:Ruleset,
  {4d7a7f0b-3403-4088-b1d3-6ac28a814f83}, !- Handle
  0400|2200|Outpatient|default|air_velocity, !- Name
  {37fa662f-79c3-43c1-8edf-a774738d6514}, !- Schedule Type Limits Name
  {bb6ca547-05cf-4356-b76a-34144d5c67ba}, !- Default Day Schedule Name
  {cb6ced4b-e198-4ece-af40-7b860359d9e1}, !- Summer Design Day Schedule Name
  {94d5c608-4ff1-4ac9-b480-f9bb7a757296}; !- Winter Design Day Schedule Name

OS:ScheduleTypeLimits,
  {37fa662f-79c3-43c1-8edf-a774738d6514}, !- Handle
  Dimensionless Schedule Type Limits,     !- Name
  ,                                       !- Lower Limit Value {BasedOnField A4}
  ,                                       !- Upper Limit Value {BasedOnField A4}
  Continuous,                             !- Numeric Type
  Dimensionless;                          !- Unit Type

OS:Schedule:Day,
  {bb6ca547-05cf-4356-b76a-34144d5c67ba}, !- Handle
  0400|2200|Outpatient|default|air_velocity |default, !- Name
  {37fa662f-79c3-43c1-8edf-a774738d6514}, !- Schedule Type Limits Name
  ,                                       !- Interpolate to Timestep
  24,                                     !- Hour 1
  0,                                      !- Minute 1
  0.200152;                               !- Value Until Time 1

OS:Schedule:Day,
  {cb6ced4b-e198-4ece-af40-7b860359d9e1}, !- Handle
  0400|2200|Outpatient|default|air_velocity Summer Design Day, !- Name
  {37fa662f-79c3-43c1-8edf-a774738d6514}, !- Schedule Type Limits Name
  ,                                       !- Interpolate to Timestep
  24,                                     !- Hour 1
  0,                                      !- Minute 1
  0.200152;                               !- Value Until Time 1

OS:Schedule:Day,
  {94d5c608-4ff1-4ac9-b480-f9bb7a757296}, !- Handle
  0400|2200|Outpatient|default|air_velocity Winter Design Day, !- Name
  {37fa662f-79c3-43c1-8edf-a774738d6514}, !- Schedule Type Limits Name
  ,                                       !- Interpolate to Timestep
  24,                                     !- Hour 1
  0,                                      !- Minute 1
  0.200152;                               !- Value Until Time 1

OS:Schedule:Ruleset,
  {edd4ec41-b620-41ac-b7da-39b1bdbe72b4}, !- Handle
  0400|2200|Outpatient|default|elec_equip, !- Name
  {a16c14f1-5cd5-461b-9a02-18bb9cbb9054}, !- Schedule Type Limits Name
  {85dc2e33-9576-4a38-b85f-5c77ceb9b2bb}, !- Default Day Schedule Name
  {a815a6bc-2eca-4269-aaa7-5ac785effac3}, !- Summer Design Day Schedule Name
  {33ff8b96-2a94-4bd4-9e31-7c67b6ae7413}; !- Winter Design Day Schedule Name

OS:ScheduleTypeLimits,
  {a16c14f1-5cd5-461b-9a02-18bb9cbb9054}, !- Handle
  Equipment Schedule Type Limits,         !- Name
  0,                                      !- Lower Limit Value {BasedOnField A4}
  1,                                      !- Upper Limit Value {BasedOnField A4}
  Continuous,                             !- Numeric Type
  Dimensionless;                          !- Unit Type

OS:Schedule:Day,
  {85dc2e33-9576-4a38-b85f-5c77ceb9b2bb}, !- Handle
  0400|2200|Outpatient|default|elec_equip |default, !- Name
  {a16c14f1-5cd5-461b-9a02-18bb9cbb9054}, !- Schedule Type Limits Name
  ,                                       !- Interpolate to Timestep
  4,                                      !- Hour 1
  0,                                      !- Minute 1
  0.3,                                    !- Value Until Time 1
  6,                                      !- Hour 2
  0,                                      !- Minute 2
  0.5,                                    !- Value Until Time 2
  18,                                     !- Hour 3
  0,                                      !- Minute 3
  1,                                      !- Value Until Time 3
  20,                                     !- Hour 4
  0,                                      !- Minute 4
  0.5,                                    !- Value Until Time 4
  24,                                     !- Hour 5
  0,                                      !- Minute 5
  0.3;                                    !- Value Until Time 5

OS:Schedule:Day,
  {a815a6bc-2eca-4269-aaa7-5ac785effac3}, !- Handle
  0400|2200|Outpatient|default|elec_equip Summer Design Day, !- Name
  {a16c14f1-5cd5-461b-9a02-18bb9cbb9054}, !- Schedule Type Limits Name
  ,                                       !- Interpolate to Timestep
  24,                                     !- Hour 1
  0,                                      !- Minute 1
  1;                                      !- Value Until Time 1

OS:Schedule:Day,
  {33ff8b96-2a94-4bd4-9e31-7c67b6ae7413}, !- Handle
  0400|2200|Outpatient|default|elec_equip Winter Design Day, !- Name
  {a16c14f1-5cd5-461b-9a02-18bb9cbb9054}, !- Schedule Type Limits Name
  ,                                       !- Interpolate to Timestep
  24,                                     !- Hour 1
  0,                                      !- Minute 1
  0.3;                                    !- Value Until Time 1

OS:Schedule:Rule,