
OS:Version,
  {e8a7e900-ebd0-4383-81dd-55637869533f}, !- Handle
  1.6.0;                                  !- Version Identifier

OS:ClimateZones,
  {135edfab-17e7-40db-a436-27d385a8cd6d}, !- Handle
  ,                                       !- Active Institution
  ,                                       !- Active Year
  ASHRAE,                                 !- Climate Zone Institution Name 1
  ANSI/ASHRAE Standard 169,               !- Climate Zone Document Name 1
  2006,                                   !- Climate Zone Document Year 1
  ,                                       !- Climate Zone Value 1
  CEC,                                    !- Climate Zone Institution Name 2
  California Climate Zone Descriptions,   !- Climate Zone Document Name 2
  1995,                                   !- Climate Zone Document Year 2
  ;                                       !- Climate Zone Value 2

OS:YearDescription,
  {513d8dda-86cb-442a-b01c-1f7f0e0ac70e}; !- Handle

OS:RadianceParameters,
  {270a96f1-3c86-4b75-a667-cdf22790e2c8}, !- Handle
  1,                                      !- Accumulated Rays per Record
  0,                                      !- Direct Threshold
  1,                                      !- Direct Certainty
  1,                                      !- Direct Jitter
  1,                                      !- Direct Pretest
  6,                                      !- Ambient Bounces VMX
  2,                                      !- Ambient Bounces DMX
  4050,                                   !- Ambient Divisions VMX
  512,                                    !- Ambient Divisions DMX
  256,                                    !- Ambient Supersamples
  0.001,                                  !- Limit Weight VMX
  0.001,                                  !- Limit Weight DMX
  500,                                    !- Klems Sampling Density
  146;                                    !- Sky Discretization Resolution

OS:SimulationControl,
  {2c487a4c-bac9-4ac5-b669-1e49d9da7c2b}, !- Handle
  ,                                       !- Do Zone Sizing Calculation
  ,                                       !- Do System Sizing Calculation
  ,                                       !- Do Plant Sizing Calculation
  No,                                     !- Run Simulation for Sizing Periods
  ,                                       !- Run Simulation for Weather File Run Periods
  0.04,                                   !- Loads Convergence Tolerance Value
  ,                                       !- Temperature Convergence Tolerance Value {deltaC}
  ,                                       !- Solar Distribution
  ,                                       !- Maximum Number of Warmup Days
  2;                                      !- Minimum Number of Warmup Days

OS:Sizing:Parameters,
  {dde5af6f-7923-4600-a28a-7556673a0266}, !- Handle
  1.25,                                   !- Heating Sizing Factor
  1.15;                                   !- Cooling Sizing Factor

OS:ProgramControl,
  {05027a99-f2b3-4aeb-afc6-1425fbb4371d}; !- Handle

OS:Timestep,
  {4ebc9f1e-4707-402e-9844-67eb1ffbd522}, !- Handle
  2;                                      !- Number of Timesteps per Hour

OS:OutputControl:ReportingTolerances,
  {65797aa2-06a9-45fe-b69d-bc6e060399d3}; !- Handle

OS:ConvergenceLimits,
  {9fc11aba-8822-4f3d-970c-46391ba4040d}; !- Handle

OS:ShadowCalculation,
  {ca758bea-4416-4626-9bba-3d8795c79bd6}, !- Handle
  7,                                      !- Calculation Frequency
  15000;                                  !- Maximum Figures in Shadow Overlap Calculations

OS:SurfaceConvectionAlgorithm:Inside,
  {aaabfc36-718a-4ab0-b622-f186ebb45230}, !- Handle
  TARP;                                   !- Algorithm

OS:SurfaceConvectionAlgorithm:Outside,
  {9a0a9f6f-4bbd-4b12-a121-9492a1fcd7d6}, !- Handle
  DOE-2;                                  !- Algorithm

OS:HeatBalanceAlgorithm,
  {9d93e563-e1e0-46d7-9e39-d1c8aceb7212}, !- Handle
  ConductionTransferFunction,             !- Algorithm
  200;                                    !- Surface Temperature Upper Limit {F}

OS:ZoneAirHeatBalanceAlgorithm,
  {8520d93e-310f-4696-9bcd-36228bfdd743}, !- Handle
  AnalyticalSolution;                     !- Algorithm

OS:ZoneAirContaminantBalance,
  {eb5fc3ae-fb22-4160-8fcb-3e3b22b000d3}; !- Handle

OS:ZoneCapacitanceMultiplier:ResearchSpecial,
  {4020ce4f-5a7a-4849-8028-8305d7b751b1}, !- Handle
  ,                                       !- Temperature Capacity Multiplier
  ,                                       !- Humidity Capacity Multiplier
  ;                                       !- Carbon Dioxide Capacity Multiplier

OS:RunPeriod,
  {28df894d-6af9-4fb8-8f56-df1753344aa3}, !- Handle
  Run Period 1,                           !- Name
  1,                                      !- Begin Month
  1,                                      !- Begin Day of Month
  12,                                     !- End Month
  31,                                     !- End Day of Month
  ,                                       !- Use Weather File Holidays and Special Days
  ,                                       !- Use Weather File Daylight Saving Period
  ,                                       !- Apply Weekend Holiday Rule
  ,                                       !- Use Weather File Rain Indicators
  ,                                       !- Use Weather File Snow Indicators
  ;                                       !- Number of Times Runperiod to be Repeated

OS:Building,
  {bf305633-c5a1-4881-9edf-ca5e1a8e1274}, !- Handle
  Building 1,                             !- Name
  ,                                       !- Building Sector Type
  ,                                       !- North Axis {deg}
  ,                                       !- Nominal Floor to Floor Height {m}
  ,                                       !- Space Type Name
  ,                                       !- Default Construction Set Name
  {31691c8b-b211-4620-a94c-ff07e105c07a}, !- Default Schedule Set Name
  ,                                       !- Standards Number of Stories
  ,                                       !- Standards Number of Above Ground Stories
  Outpatient;                             !- Standards Building Type

OS:LifeCycleCost:Parameters,
  {231cf8a0-f0e7-4251-a99f-11f0d464e661}, !- Handle
  FEMP,                                   !- Analysis Type
  ,                                       !- Discounting Convention
  ,                                       !- Inflation Approach
  ,                                       !- Real Discount Rate
  ,                                       !- Nominal Discount Rate
  ,                                       !- Inflation
  ,                                       !- Base Date Month
  ,                                       !- Base Date Year
  ,                                       !- Service Date Month
  ,                                       !- Service Date Year
  ,                                       !- Length of Study Period in Years
  ,                                       !- Tax Rate
  ,                                       !- Depreciation Method
  Yes;                                    !- Use NIST Fuel Escalation Rates

OS:Facility,
  {3ba8e45b-b833-44eb-a723-ea6c3946dc96}; !- Handle

OS:SpaceType,
  {ea4df9f5-235f-40c3-ac18-a66bae2c864e}, !- Handle
  Outpatient|BlendCirc|DOE Ref 1980-2004|ASHRAE 169-2006-5A, !- Name
  {84db427d-cb16-444c-bdee-f8bbb524802f}, !- Default Construction Set Name
  ,                                       !- Default Schedule Set Name
  {9836ae38-67bf-42f8-b2d1-9d3770f6683c}, !- Group Rendering Name
  {68e17555-5d3c-43c2-8326-f6d5f0779902}, !- Design Specification Outdoor Air Object Name
  Outpatient,                             !- Standards Building Type
  BlendCirc;                              !- Standards Space Type

OS:Rendering:Color,
  {9836ae38-67bf-42f8-b2d1-9d3770f6683c}, !- Handle
  Rendering Color 1,                      !- Name
  169,                                    !- Rendering Red Value
  31,                                     !- Rendering Green Value
  31;                                     !- Rendering Blue Value

OS:SpaceType,
  {04eb3f6b-36c5-4a2d-9736-0aef7d022e7b}, !- Handle
  Outpatient|BlendOff|DOE Ref 1980-2004|ASHRAE 169-2006-5A, !- Name
  {84db427d-cb16-444c-bdee-f8bbb524802f}, !- Default Construction Set Name
  ,                                       !- Default Schedule Set Name
  {d427222b-f25f-448b-9ae3-1a0e1641cc4d}, !- Group Rendering Name
  {ad66b7ca-73fd-48df-bec5-15fcfd3c9246}, !- Design Specification Outdoor Air Object Name
  Outpatient,                             !- Standards Building Type
  BlendOff;                               !- Standards Space Type

OS:Rendering:Color,
  {d427222b-f25f-448b-9ae3-1a0e1641cc4d}, !- Handle
  Rendering Color 2,                      !- Name
  120,                                    !- Rendering Red Value
  230,                                    !- Rendering Green Value
  199;                                    !- Rendering Blue Value

OS:SpaceType,
  {52c4409e-ca22-4043-ac76-1776d847df1f}, !- Handle
  Outpatient|BlendPat|DOE Ref 1980-2004|ASHRAE 169-2006-5A, !- Name
  {84db427d-cb16-444c-bdee-f8bbb524802f}, !- Default Construction Set Name
  ,                                       !- Default Schedule Set Name
  {4726fdf4-3aae-49f5-8975-792e8b798cd7}, !- Group Rendering Name
  {126868e2-b577-4b48-937b-a31afa072b9c}, !- Design Specification Outdoor Air Object Name
  Outpatient,                             !- Standards Building Type
  BlendPat;                               !- Standards Space Type

OS:Rendering:Color,
  {4726fdf4-3aae-49f5-8975-792e8b798cd7}, !- Handle
  Rendering Color 3,                      !- Name
  136,                                    !- Rendering Red Value
  78,                                     !- Rendering Green Value
  222;                                    !- Rendering Blue Value

OS:SpaceType,
  {5c735083-8d01-4074-8185-29b0b1beecc6}, !- Handle
  Outpatient|BlendImg|DOE Ref 1980-2004|ASHRAE 169-2006-5A, !- Name
  {84db427d-cb16-444c-bdee-f8bbb524802f}, !- Default Construction Set Name
  ,                                       !- Default Schedule Set Name
  {577020ac-0c07-43de-9c36-98febb93f615}, !- Group Rendering Name
  {e4265ad5-4686-4374-b0f4-389394b01542}, !- Design Specification Outdoor Air Object Name
  Outpatient,                             !- Standards Building Type
  BlendImg;                               !- Standards Space Type

OS:Rendering:Color,
  {577020ac-0c07-43de-9c36-98febb93f615}, !- Handle
  Rendering Color 4,                      !- Name
  169,                                    !- Rendering Red Value
  31,                                     !- Rendering Green Value
  159;                                    !- Rendering Blue Value

OS:SpaceType,
  {5d0f8ed3-b0f2-47ad-9e84-48e1d5566adc}, !- Handle
  Outpatient|BlendMedStg|DOE Ref 1980-2004|ASHRAE 169-2006-5A, !- Name
  {84db427d-cb16-444c-bdee-f8bbb524802f}, !- Default Construction Set Name
  ,                                       !- Default Schedule Set Name
  {bda94773-ea4f-4408-8f37-b080da604866}, !- Group Rendering Name
  {a64dfb07-6ed3-4100-892c-7f914024b9a2}, !- Design Specification Outdoor Air Object Name
  Outpatient,                             !- Standards Building Type
  BlendMedStg;                            !- Standards Space Type

OS:Rendering:Color,
  {bda94773-ea4f-4408-8f37-b080da604866}, !- Handle
  Rendering Color 5,                      !- Name
  204,                                    !- Rendering Red Value
  120,                                    !- Rendering Green Value
  230;                                    !- Rendering Blue Value

OS:SpaceType,
  {11653d54-7f9d-495e-a4c9-38e41b2d308a}, !- Handle
  Outpatient|BlendMisc|DOE Ref 1980-2004|ASHRAE 169-2006-5A, !- Name
  {84db427d-cb16-444c-bdee-f8bbb524802f}, !- Default Construction Set Name
  ,                                       !- Default Schedule Set Name
  {11b14df0-3a17-4e44-8951-0d005ea375d0}, !- Group Rendering Name
  {1ecebf48-ca42-44e5-8971-91c2c6cd4868}, !- Design Specification Outdoor Air Object Name
  Outpatient,                             !- Standards Building Type
  BlendMisc;                              !- Standards Space Type

OS:Rendering:Color,
  {11b14df0-3a17-4e44-8951-0d005ea375d0}, !- Handle
  Rendering Color 6,                      !- Name
  120,                                    !- Rendering Red Value
  149,                                    !- Rendering Green Value
  230;                                    !- Rendering Blue Value

OS:Schedule:Ruleset,
  {561d88e4-a681-460e-ab19-3905aea679a1}, !- Handle
  0400|2200|Outpatient|default|hoo,       !- Name
  {2b57ac7c-bde9-4dff-982c-05c55b6ba9d2}, !- Schedule Type Limits Name
  {2df20ba1-e925-4953-8b2e-3748ee04d3be}, !- Default Day Schedule Name
  {338f3299-8569-4d14-90b5-fe22861d19c8}, !- Summer Design Day Schedule Name
  {ddfda1a1-70c0-4e0c-9ce5-f5d893fc473b}; !- Winter Design Day Schedule Name

OS:Schedule:Day,
  {2df20ba1-e925-4953-8b2e-3748ee04d3be}, !- Handle
  0400|2200|Outpatient|default|hoo Schedule Week Day, !- Name
  {2b57ac7c-bde9-4dff-982c-05c55b6ba9d2}, !- Schedule Type Limits Name
  ,                                       !- Interpolate to Timestep
  4,                                      !- Hour 1
  0,                                      !- Minute 1
  0,                                      !- Value Until Time 1
  22,                                     !- Hour 2
  0,                                      !- Minute 2
  1,                                      !- Value Until Time 2
  24,                                     !- Hour 3
  0,                                      !- Minute 3
  0;                                      !- Value Until Time 3

OS:Schedule:Day,
  {53bb53f0-af42-4c83-813b-0fe687f874bc}, !- Handle
  Schedule Day 2,                         !- Name
  ,                                       !- Schedule Type Limits Name
  ,                                       !- Interpolate to Timestep
  24,                                     !- Hour 1
  0,                                      !- Minute 1
  0;                                      !- Value Until Time 1

OS:Schedule:Day,
  {ddfda1a1-70c0-4e0c-9ce5-f5d893fc473b}, !- Handle
  0400|2200|Outpatient|default|hoo Winter Design Day, !- Name
  {2b57ac7c-bde9-4dff-982c-05c55b6ba9d2}, !- Schedule Type Limits Name
  ,                                       !- Interpolate to Timestep
  24,                                     !- Hour 1
  0,                                      !- Minute 1
  0;                                      !- Value Until Time 1

OS:Schedule:Day,
  {53ff4be9-cdec-4e64-9bdb-155147efaab1}, !- Handle
  Schedule Day 3,                         !- Name
  ,                                       !- Schedule Type Limits Name
  ,                                       !- Interpolate to Timestep
  24,                                     !- Hour 1
  0,                                      !- Minute 1
  0;                                      !- Value Until Time 1

OS:Schedule:Day,
  {338f3299-8569-4d14-90b5-fe22861d19c8}, !- Handle
  0400|2200|Outpatient|default|hoo Summer Design Day, !- Name
  {2b57ac7c-bde9-4dff-982c-05c55b6ba9d2}, !- Schedule Type Limits Name
  ,                                       !- Interpolate to Timestep
  24,                                     !- Hour 1
  0,                                      !- Minute 1
  1;                                      !- Value Until Time 1

OS:DefaultScheduleSet,
  {31691c8b-b211-4620-a94c-ff07e105c07a}, !- Handle
  Building Hours of Operation,            !- Name
  {561d88e4-a681-460e-ab19-3905aea679a1}, !- Hours of Operation Schedule Name
  ,                                       !- Number of People Schedule Name
  ,                                       !- People Activity Level Schedule Name
  ,                                       !- Lighting Schedule Name
  ,                                       !- Electric Equipment Schedule Name
  ,                                       !- Gas Equipment Schedule Name
  ,                                       !- Hot Water Equipment Schedule Name
  ,                                       !- Infiltration Schedule Name
  ,                                       !- Steam Equipment Schedule Name
  ;                                       !- Other Equipment Schedule Name

OS:ScheduleTypeLimits,
  {2b57ac7c-bde9-4dff-982c-05c55b6ba9d2}, !- Handle
  OnOff,                                  !- Name
  0,                                      !- Lower Limit Value {BasedOnField A4}
  1,                                      !- Upper Limit Value {BasedOnField A4}
  Discrete,                               !- Numeric Type
  Availability;                           !- Unit Type

OS:Schedule:Ruleset,
  {43980033-7e3d-464c-91ff-7db213b70d54}, !- Handle
  0400|2200|Outpatient|default|gas_equip, !- Name
  {36e5da8e-4e72-47af-a4cd-1aaa797fd5c7}, !- Schedule Type Limits Name
  {d009ac25-883d-4de7-be6c-7bcaeadabf23}, !- Default Day Schedule Name
  {6cdfa26a-2bef-4229-9454-8a2eab3b04bc}, !- Summer Design Day Schedule Name
  {1de86024-5509-4f78-a533-29c76a353791}; !- Winter Design Day Schedule Name

OS:ScheduleTypeLimits,
  {36e5da8e-4e72-47af-a4cd-1aaa797fd5c7}, !- Handle
  Equipment Schedule Type Limits,         !- Name
  0,                                      !- Lower Limit Value {BasedOnField A4}
  1,                                      !- Upper Limit Value {BasedOnField A4}
  Continuous,                             !- Numeric Type
  Dimensionless;                          !- Unit Type

OS:Schedule:Day,
  {d009ac25-883d-4de7-be6c-7bcaeadabf23}, !- Handle
  0400|2200|Outpatient|default|gas_equip |default, !- Name
  {36e5da8e-4e72-47af-a4cd-1aaa797fd5c7}, !- Schedule Type Limits Name
  ,                                       !- Interpolate to Timestep
  4,                                      !- Hour 1
  0,                                      !- Minute 1
  0.3,                                    !- Value Until Time 1
  6,                                      !- Hour 2
  0,                                      !- Minute 2
  0.5,                                    !- Value Until Time 2
  18,                                     !- Hour 3
  0,                                      !- Minute 3
  1,                                      !- Value Until Time 3
  20,                                     !- Hour 4
  0,                                      !- Minute 4
  0.5,                                    !- Value Until Time 4
  24,                                     !- Hour 5
  0,                                      !- Minute 5
  0.3;                                    !- Value Until Time 5

OS:Schedule:Day,
  {6cdfa26a-2bef-4229-9454-8a2eab3b04bc}, !- Handle
  0400|2200|Outpatient|default|gas_equip Summer Design Day, !- Name
  {36e5da8e-4e72-47af-a4cd-1aaa797fd5c7}, !- Schedule Type Limits Name
  ,                                       !- Interpolate to Timestep
  24,                                     !- Hour 1
  0,                                      !- Minute 1
  1;                                      !- Value Until Time 1

OS:Schedule:Day,
  {1de86024-5509-4f78-a533-29c76a353791}, !- Handle
  0400|2200|Outpatient|default|gas_equip Winter Design Day, !- Name
  {36e5da8e-4e72-47af-a4cd-1aaa797fd5c7}, !- Schedule Type Limits Name
  ,                                       !- Interpolate to Timestep
  24,                                     !- Hour 1
  0,                                      !- Minute 1
  0.3;                                    !- Value Until Time 1

OS:Schedule:Rule,
  {fa84dc1c-2509-438a-b1f9-dd43f35a4e88}, !- Handle
  0400|2200|Outpatient|default|gas_equip |1/1-12/31|Sat Rule, !- Name
  {43980033-7e3d-464c-91ff-7db213b70d54}, !- Schedule Ruleset Name
  0,                                      !- Rule Order
  {14ba186b-43e4-427f-b15e-240999b5ceb5}, !- Day Schedule Name
  ,                                       !- Apply Sunday
  ,                                       !- Apply Monday
  ,                                       !- Apply Tuesday
  ,                                       !- Apply Wednesday
  ,                                       !- Apply Thursday
  ,                                       !- Apply Friday
  Yes,                                    !- Apply Saturday
  ,                                       !- Apply Holiday
  DateRange,                              !- Date Specification Type
  1,                                      !- Start Month
  1,                                      !- Start Day
  12,                                     !- End Month
  31;                                     !- End Day

OS:Schedule:Day,
  {14ba186b-43e4-427f-b15e-240999b5ceb5}, !- Handle
  0400|2200|Outpatient|default|gas_equip |1/1-12/31|Sat, !- Name
  {36e5da8e-4e72-47af-a4cd-1aaa797fd5c7}, !- Schedule Type Limits Name
  ,                                       !- Interpolate to Timestep
  7,                                      !- Hour 1
  0,                                      !- Minute 1
  0.3,                                    !- Value Until Time 1
  9,                                      !- Hour 2
  0,                                      !- Minute 2
  0.5,                                    !- Value Until Time 2
  15,                                     !- Hour 3
  0,                                      !- Minute 3
  0.8,                                    !- Value Until Time 3
  20,                                     !- Hour 4
  0,                                      !- Minute 4
  0.5,                                    !- Value Until Time 4
  24,                                     !- Hour 5
  0,                                      !- Minute 5
  0.3;                                    !- Value Until Time 5

OS:Schedule:Rule,
  {10def530-74df-4734-968a-e46a78597702}, !- Handle
  0400|2200|Outpatient|default|gas_equip |1/1-12/31|Sun Rule, !- Name
  {43980033-7e3d-464c-91ff-7db213b70d54}, !- Schedule Ruleset Name
  1,                                      !- Rule Order
  {f2ce49b5-9ca8-436e-9c07-b7afabb06399}, !- Day Schedule Name
  Yes,                                    !- Apply Sunday
  ,                                       !- Apply Monday
  ,                                       !- Apply Tuesday
  ,                                       !- Apply Wednesday
  ,                                       !- Apply Thursday
  ,                                       !- Apply Friday
  ,                                       !- Apply Saturday
  ,                                       !- Apply Holiday
  DateRange,                              !- Date Specification Type
  1,                                      !- Start Month
  1,                                      !- Start Day
  12,                                     !- End Month
  31;                                     !- End Day

OS:Schedule:Day,
  {f2ce49b5-9ca8-436e-9c07-b7afabb06399}, !- Handle
  0400|2200|Outpatient|default|gas_equip |1/1-12/31|Sun, !- Name
  {36e5da8e-4e72-47af-a4cd-1aaa797fd5c7}, !- Schedule Type Limits Name
  ,                                       !- Interpolate to Timestep
  8,                                      !- Hour 1
  0,                                      !- Minute 1
  0.3,                                    !- Value Until Time 1
  17,                                     !- Hour 2
  0,                                      !- Minute 2
  0.5,                                    !- Value Until Time 2
  24,                                     !- Hour 3
  0,                                      !- Minute 3
  0.3;                                    !- Value Until Time 3

OS:Schedule:Ruleset,
  {7bf07d6e-8f04-4a91-9eec-62badea75c8b}, !- Handle
  0400|2200|Outpatient|default|htg_setpoint, !- Name
  {5ee56350-ebb4-4b7f-b796-e7eb7492c41b}, !- Schedule Type Limits Name
  {6e970f40-75c3-472d-b966-51b87e58db44}, !- Default Day Schedule Name
  {ad74bd11-0759-46e7-868b-31c9a98a7e47}, !- Summer Design Day Schedule Name
  {c824a37a-6253-4ab3-a968-7b01eccbf937}; !- Winter Design Day Schedule Name

OS:ScheduleTypeLimits,
  {5ee56350-ebb4-4b7f-b796-e7eb7492c41b}, !- Handle
  Thermostat Heating Setpoint Schedule Type Limits, !- Name
  0,                                      !- Lower Limit Value {BasedOnField A4}
  100,                                    !- Upper Limit Value {BasedOnField A4}
  Continuous,                             !- Numeric Type
  Temperature;                            !- Unit Type

OS:Schedule:Day,
  {6e970f40-75c3-472d-b966-51b87e58db44}, !- Handle
  0400|2200|Outpatient|default|htg_setpoint |default, !- Name
  {5ee56350-ebb4-4b7f-b796-e7eb7492c41b}, !- Schedule Type Limits Name
  ,                                       !- Interpolate to Timestep
  24,                                     !- Hour 1
  0,                                      !- Minute 1
  21.1;                                   !- Value Until Time 1

OS:Schedule:Day,
  {ad74bd11-0759-46e7-868b-31c9a98a7e47}, !- Handle
  0400|2200|Outpatient|default|htg_setpoint Summer Design Day, !- Name
  {5ee56350-ebb4-4b7f-b796-e7eb7492c41b}, !- Schedule Type Limits Name
  ,                                       !- Interpolate to Timestep
  24,                                     !- Hour 1
  0,                                      !- Minute 1
  21.1;                                   !- Value Until Time 1

OS:Schedule:Day,
  {c824a37a-6253-4ab3-a968-7b01eccbf937}, !- Handle
  0400|2200|Outpatient|default|htg_setpoint Winter Design Day, !- Name
  {5ee56350-ebb4-4b7f-b796-e7eb7492c41b}, !- Schedule Type Limits Name
  ,                                       !- Interpolate to Timestep
  24,                                     !- Hour 1
  0,                                      !- Minute 1
  21.1;                                   !- Value Until Time 1

OS:Schedule:Rule,
  {336c5fb7-0865-4eb7-b6d1-2b991df7cd04}, !- Handle
  0400|2200|Outpatient|default|htg_setpoint |1/1-12/31|Sat/Sun Rule, !- Name
  {7bf07d6e-8f04-4a91-9eec-62badea75c8b}, !- Schedule Ruleset Name
  0,                                      !- Rule Order
  {c8d9f8c6-e9cb-4edb-b50a-6d71919d4773}, !- Day Schedule Name
  Yes,                                    !- Apply Sunday
  ,                                       !- Apply Monday
  ,                                       !- Apply Tuesday
  ,                                       !- Apply Wednesday
  ,                                       !- Apply Thursday
  ,                                       !- Apply Friday
  Yes,                                    !- Apply Saturday
  ,                                       !- Apply Holiday
  DateRange,                              !- Date Specification Type
  1,                                      !- Start Month
  1,                                      !- Start Day
  12,                                     !- End Month
  31;                                     !- End Day

OS:Schedule:Day,
  {c8d9f8c6-e9cb-4edb-b50a-6d71919d4773}, !- Handle
  0400|2200|Outpatient|default|htg_setpoint |1/1-12/31|Sat/Sun, !- Name
  {5ee56350-ebb4-4b7f-b796-e7eb7492c41b}, !- Schedule Type Limits Name
  ,                                       !- Interpolate to Timestep
  24,                                     !- Hour 1
  0,                                      !- Minute 1
  18.3;                                   !- Value Until Time 1

OS:Schedule:Ruleset,
  {0163c179-92da-470a-8370-d323e05697eb}, !- Handle
  0400|2200|Outpatient|default|swh_target_temp, !- Name
  {318e4d2c-cfb5-4a4a-aab2-48c64063aea4}, !- Schedule Type Limits Name
  {4da47616-26e6-4eb7-b799-95d45846311d}, !- Default Day Schedule Name
  {227aba54-2a9b-469f-be25-bd7b926ba440}, !- Summer Design Day Schedule Name
  {e2070692-e56b-4fdb-9fa1-0dd7a3f64535}; !- Winter Design Day Schedule Name

OS:ScheduleTypeLimits,
  {318e4d2c-cfb5-4a4a-aab2-48c64063aea4}, !- Handle
  Temperature Schedule Type Limits,       !- Name
  ,                                       !- Lower Limit Value {BasedOnField A4}
  ,                                       !- Upper Limit Value {BasedOnField A4}
  Continuous,                             !- Numeric Type
  Temperature;                            !- Unit Type

OS:Schedule:Day,
  {4da47616-26e6-4eb7-b799-95d45846311d}, !- Handle
  0400|2200|Outpatient|default|swh_target_temp |default, !- Name
  {318e4d2c-cfb5-4a4a-aab2-48c64063aea4}, !- Schedule Type Limits Name
  ,                                       !- Interpolate to Timestep
  24,                                     !- Hour 1
  0,                                      !- Minute 1
  60.0000000000001;                       !- Value Until Time 1

OS:Schedule:Day,
  {227aba54-2a9b-469f-be25-bd7b926ba440}, !- Handle
  0400|2200|Outpatient|default|swh_target_temp Summer Design Day, !- Name
  {318e4d2c-cfb5-4a4a-aab2-48c64063aea4}, !- Schedule Type Limits Name
  ,                                       !- Interpolate to Timestep
  24,                                     !- Hour 1
  0,                                      !- Minute 1
  60.0000000000001;                       !- Value Until Time 1

OS:Schedule:Day,
  {e2070692-e56b-4fdb-9fa1-0dd7a3f64535}, !- Handle
  0400|2200|Outpatient|default|swh_target_temp Winter Design Day, !- Name
  {318e4d2c-cfb5-4a4a-aab2-48c64063aea4}, !- Schedule Type Limits Name
  ,                                       !- Interpolate to Timestep
  24,                                     !- Hour 1
  0,                                      !- Minute 1
  60.0000000000001;                       !- Value Until Time 1

OS:Schedule:Ruleset,
  {fd3b11cf-71d8-4264-9063-72a6cf28eac9}, !- Handle
  0400|2200|Outpatient|default|occ,       !- Name
  {b2fe5f8e-d0c4-4146-a8c1-6190bef3b3ca}, !- Schedule Type Limits Name