
OS:Version,
  {df434b76-9e2d-49a8-aadc-8433a04224dc}, !- Handle
  1.5.5;                                  !- Version Identifier

OS:ClimateZones,
  {135edfab-17e7-40db-a436-27d385a8cd6d}, !- Handle
  ,                                       !- Active Institution
  ,                                       !- Active Year
  ASHRAE,                                 !- Climate Zone Institution Name 1
  ANSI/ASHRAE Standard 169,               !- Climate Zone Document Name 1
  2006,                                   !- Climate Zone Document Year 1
  ,                                       !- Climate Zone Value 1
  CEC,                                    !- Climate Zone Institution Name 2
  California Climate Zone Descriptions,   !- Climate Zone Document Name 2
  1995,                                   !- Climate Zone Document Year 2
  ;                                       !- Climate Zone Value 2

OS:YearDescription,
  {513d8dda-86cb-442a-b01c-1f7f0e0ac70e}; !- Handle

OS:RadianceParameters,
  {270a96f1-3c86-4b75-a667-cdf22790e2c8}, !- Handle
  1,                                      !- Accumulated Rays per Record
  0,                                      !- Direct Threshold
  1,                                      !- Direct Certainty
  1,                                      !- Direct Jitter
  1,                                      !- Direct Pretest
  6,                                      !- Ambient Bounces VMX
  2,                                      !- Ambient Bounces DMX
  4050,                                   !- Ambient Divisions VMX
  512,                                    !- Ambient Divisions DMX
  256,                                    !- Ambient Supersamples
  0.001,                                  !- Limit Weight VMX
  0.001,                                  !- Limit Weight DMX
  500,                                    !- Klems Sampling Density
  146;                                    !- Sky Discretization Resolution

OS:SimulationControl,
  {2c487a4c-bac9-4ac5-b669-1e49d9da7c2b}, !- Handle
  ,                                       !- Do Zone Sizing Calculation
  ,                                       !- Do System Sizing Calculation
  ,                                       !- Do Plant Sizing Calculation
  No,                                     !- Run Simulation for Sizing Periods
  ,                                       !- Run Simulation for Weather File Run Periods
  0.04,                                   !- Loads Convergence Tolerance Value
  ,                                       !- Temperature Convergence Tolerance Value {deltaC}
  ,                                       !- Solar Distribution
  ,                                       !- Maximum Number of Warmup Days
  2;                                      !- Minimum Number of Warmup Days

OS:Sizing:Parameters,
  {dde5af6f-7923-4600-a28a-7556673a0266}, !- Handle
  1.25,                                   !- Heating Sizing Factor
  1.15;                                   !- Cooling Sizing Factor

OS:ProgramControl,
  {05027a99-f2b3-4aeb-afc6-1425fbb4371d}; !- Handle

OS:Timestep,
  {4ebc9f1e-4707-402e-9844-67eb1ffbd522}, !- Handle
  2;                                      !- Number of Timesteps per Hour

OS:OutputControl:ReportingTolerances,
  {65797aa2-06a9-45fe-b69d-bc6e060399d3}; !- Handle

OS:ConvergenceLimits,
  {9fc11aba-8822-4f3d-970c-46391ba4040d}; !- Handle

OS:ShadowCalculation,
  {ca758bea-4416-4626-9bba-3d8795c79bd6}, !- Handle
  7,                                      !- Calculation Frequency
  15000;                                  !- Maximum Figures in Shadow Overlap Calculations

OS:SurfaceConvectionAlgorithm:Inside,
  {aaabfc36-718a-4ab0-b622-f186ebb45230}, !- Handle
  TARP;                                   !- Algorithm

OS:SurfaceConvectionAlgorithm:Outside,
  {9a0a9f6f-4bbd-4b12-a121-9492a1fcd7d6}, !- Handle
  DOE-2;                                  !- Algorithm

OS:HeatBalanceAlgorithm,
  {9d93e563-e1e0-46d7-9e39-d1c8aceb7212}, !- Handle
  ConductionTransferFunction,             !- Algorithm
  200;                                    !- Surface Temperature Upper Limit {F}

OS:ZoneAirHeatBalanceAlgorithm,
  {8520d93e-310f-4696-9bcd-36228bfdd743}, !- Handle
  AnalyticalSolution;                     !- Algorithm

OS:ZoneAirContaminantBalance,
  {eb5fc3ae-fb22-4160-8fcb-3e3b22b000d3}; !- Handle

OS:ZoneCapacitanceMultiplier:ResearchSpecial,
  {4020ce4f-5a7a-4849-8028-8305d7b751b1}, !- Handle
  ,                                       !- Temperature Capacity Multiplier
  ,                                       !- Humidity Capacity Multiplier
  ;                                       !- Carbon Dioxide Capacity Multiplier

OS:RunPeriod,
  {28df894d-6af9-4fb8-8f56-df1753344aa3}, !- Handle
  Run Period 1,                           !- Name
  1,                                      !- Begin Month
  1,                                      !- Begin Day of Month
  12,                                     !- End Month
  31,                                     !- End Day of Month
  ,                                       !- Use Weather File Holidays and Special Days
  ,                                       !- Use Weather File Daylight Saving Period
  ,                                       !- Apply Weekend Holiday Rule
  ,                                       !- Use Weather File Rain Indicators
  ,                                       !- Use Weather File Snow Indicators
  ;                                       !- Number of Times Runperiod to be Repeated

OS:Building,
  {bf305633-c5a1-4881-9edf-ca5e1a8e1274}, !- Handle
  Building 1,                             !- Name
  ,                                       !- Building Sector Type
  ,                                       !- North Axis {deg}
  ,                                       !- Nominal Floor to Floor Height {m}
  ,                                       !- Space Type Name
  ,                                       !- Default Construction Set Name
  {5f01dace-0394-4f4f-86f1-9aea1c7c5f80}, !- Default Schedule Set Name
  ,                                       !- Standards Number of Stories
  ,                                       !- Standards Number of Above Ground Stories
  PrimarySchool;                          !- Standards Building Type

OS:LifeCycleCost:Parameters,
  {231cf8a0-f0e7-4251-a99f-11f0d464e661}, !- Handle
  FEMP,                                   !- Analysis Type
  ,                                       !- Discounting Convention
  ,                                       !- Inflation Approach
  ,                                       !- Real Discount Rate
  ,                                       !- Nominal Discount Rate
  ,                                       !- Inflation
  ,                                       !- Base Date Month
  ,                                       !- Base Date Year
  ,                                       !- Service Date Month
  ,                                       !- Service Date Year
  ,                                       !- Length of Study Period in Years
  ,                                       !- Tax Rate
  ,                                       !- Depreciation Method
  Yes;                                    !- Use NIST Fuel Escalation Rates

OS:Facility,
  {3ba8e45b-b833-44eb-a723-ea6c3946dc96}; !- Handle

OS:SpaceType,
  {44835530-bf1f-4133-8e5f-6e2815cc02cf}, !- Handle
  PrimarySchool|BlendEdu|DOE Ref 1980-2004|ASHRAE 169-2006-5A, !- Name
  {f1e09773-44f1-4ddd-b3cf-a5594c8df49c}, !- Default Construction Set Name
  ,                                       !- Default Schedule Set Name
  {f2881500-0137-4118-a400-2e4e309aa686}, !- Group Rendering Name
  {29f85325-52bb-49e3-9338-13e14c2233d0}, !- Design Specification Outdoor Air Object Name
  PrimarySchool,                          !- Standards Building Type
  BlendEdu;                               !- Standards Space Type

OS:Rendering:Color,
  {f2881500-0137-4118-a400-2e4e309aa686}, !- Handle
  Rendering Color 1,                      !- Name
  120,                                    !- Rendering Red Value
  230,                                    !- Rendering Green Value
  199;                                    !- Rendering Blue Value

OS:SpaceType,
  {34b498b4-d4c7-4e7c-90c6-9882770acbc9}, !- Handle
  PrimarySchool|BlendOff|DOE Ref 1980-2004|ASHRAE 169-2006-5A, !- Name
  {f1e09773-44f1-4ddd-b3cf-a5594c8df49c}, !- Default Construction Set Name
  ,                                       !- Default Schedule Set Name
  {322bd998-57d2-4767-acd8-595f2de62e96}, !- Group Rendering Name
  {22a0074f-d07a-4ef5-9534-cda63d7ff40d}, !- Design Specification Outdoor Air Object Name
  PrimarySchool,                          !- Standards Building Type
  BlendOff;                               !- Standards Space Type

OS:Rendering:Color,
  {322bd998-57d2-4767-acd8-595f2de62e96}, !- Handle
  Rendering Color 2,                      !- Name
  120,                                    !- Rendering Red Value
  230,                                    !- Rendering Green Value
  199;                                    !- Rendering Blue Value

OS:SpaceType,
  {b7fc3745-5af8-48c7-89d5-518b2964cfd0}, !- Handle
  PrimarySchool|Library|DOE Ref 1980-2004|ASHRAE 169-2006-5A, !- Name
  {f1e09773-44f1-4ddd-b3cf-a5594c8df49c}, !- Default Construction Set Name
  {f236be1f-e4d7-4a2c-bbd3-d8f2ffebb9d3}, !- Default Schedule Set Name
  {d8b974e8-bd97-4c7b-a2b6-dc43a039828d}, !- Group Rendering Name
  {c87439a5-a907-4296-86c4-0c42325d87d6}, !- Design Specification Outdoor Air Object Name
  PrimarySchool,                          !- Standards Building Type
  Library;                                !- Standards Space Type

OS:Rendering:Color,
  {d8b974e8-bd97-4c7b-a2b6-dc43a039828d}, !- Handle
  Rendering Color 3,                      !- Name
  230,                                    !- Rendering Red Value
  196,                                    !- Rendering Green Value
  120;                                    !- Rendering Blue Value

OS:SpaceType,
  {d4af56d4-9b82-4921-8a44-04c08ffae0ff}, !- Handle
  PrimarySchool|Gym|DOE Ref 1980-2004|ASHRAE 169-2006-5A, !- Name
  {f1e09773-44f1-4ddd-b3cf-a5594c8df49c}, !- Default Construction Set Name
  {2b7bfd7a-00cc-4762-a0e1-2076edc1c6e6}, !- Default Schedule Set Name
  {96f41df1-a6ce-4824-a403-01573cf03dde}, !- Group Rendering Name
  {4d440393-761e-47a5-816b-44f1cf7f48cb}, !- Design Specification Outdoor Air Object Name
  PrimarySchool,                          !- Standards Building Type
  Gym;                                    !- Standards Space Type

OS:Rendering:Color,
  {96f41df1-a6ce-4824-a403-01573cf03dde}, !- Handle
  Rendering Color 4,                      !- Name
  154,                                    !- Rendering Red Value
  230,                                    !- Rendering Green Value
  120;                                    !- Rendering Blue Value

OS:SpaceType,
  {c84be168-c29b-4b28-bdbd-6f7c12556a16}, !- Handle
  PrimarySchool|Cafeteria|DOE Ref 1980-2004|ASHRAE 169-2006-5A, !- Name
  {f1e09773-44f1-4ddd-b3cf-a5594c8df49c}, !- Default Construction Set Name
  {bed8bc17-cfea-43a2-a0d3-17db238cf1bd}, !- Default Schedule Set Name
  {973de6c4-e66e-42e9-8329-e37087dd0085}, !- Group Rendering Name
  {6207891f-ba31-406d-a4f0-fb49405efbc0}, !- Design Specification Outdoor Air Object Name
  PrimarySchool,                          !- Standards Building Type
  Cafeteria;                              !- Standards Space Type

OS:Rendering:Color,
  {973de6c4-e66e-42e9-8329-e37087dd0085}, !- Handle
  Rendering Color 5,                      !- Name
  31,                                     !- Rendering Red Value
  169,                                    !- Rendering Green Value
  34;                                     !- Rendering Blue Value

OS:SpaceType,
  {cdbe31f4-3c2a-486f-afea-2751ce226c79}, !- Handle
  PrimarySchool|Kitchen|DOE Ref 1980-2004|ASHRAE 169-2006-5A, !- Name
  {f1e09773-44f1-4ddd-b3cf-a5594c8df49c}, !- Default Construction Set Name
  {b82afbba-fe4b-4450-b7ef-8efa2925f95a}, !- Default Schedule Set Name
  {c5a936f4-0659-40bf-aaf2-40879f625b65}, !- Group Rendering Name
  {4b0cb4b4-4237-4e4a-acb9-9c59de88b658}, !- Design Specification Outdoor Air Object Name
  PrimarySchool,                          !- Standards Building Type
  Kitchen;                                !- Standards Space Type

OS:Rendering:Color,
  {c5a936f4-0659-40bf-aaf2-40879f625b65}, !- Handle
  Rendering Color 6,                      !- Name
  78,                                     !- Rendering Red Value
  222,                                    !- Rendering Green Value
  133;                                    !- Rendering Blue Value

OS:Schedule:Ruleset,
  {9bdb1ce3-2e2c-4c34-b439-3dec4ba3c4ce}, !- Handle
  0800|1600|PrimarySchool|default|hoo,    !- Name
  {955060c5-aa1e-431d-ae04-84a80442b120}, !- Schedule Type Limits Name
  {c1f80766-4b09-4300-a953-6372c5343068}, !- Default Day Schedule Name
  {48789082-798b-4d15-a071-83efa145db51}, !- Summer Design Day Schedule Name
  {05c5e17d-9fbb-424b-8dd6-e7402b17c7d8}; !- Winter Design Day Schedule Name

OS:Schedule:Day,
  {c1f80766-4b09-4300-a953-6372c5343068}, !- Handle
  0800|1600|PrimarySchool|default|hoo Schedule Week Day, !- Name
  {955060c5-aa1e-431d-ae04-84a80442b120}, !- Schedule Type Limits Name
  ,                                       !- Interpolate to Timestep
  8,                                      !- Hour 1
  0,                                      !- Minute 1
  0,                                      !- Value Until Time 1
  16,                                     !- Hour 2
  0,                                      !- Minute 2
  1,                                      !- Value Until Time 2
  24,                                     !- Hour 3
  0,                                      !- Minute 3
  0;                                      !- Value Until Time 3

OS:Schedule:Day,
  {b2d70a4a-b1d8-4a22-ae1a-32d0e040ed0a}, !- Handle
  Schedule Day 2,                         !- Name
  ,                                       !- Schedule Type Limits Name
  ,                                       !- Interpolate to Timestep
  24,                                     !- Hour 1
  0,                                      !- Minute 1
  0;                                      !- Value Until Time 1

OS:Schedule:Day,
  {05c5e17d-9fbb-424b-8dd6-e7402b17c7d8}, !- Handle
  0800|1600|PrimarySchool|default|hoo Winter Design Day, !- Name
  {955060c5-aa1e-431d-ae04-84a80442b120}, !- Schedule Type Limits Name
  ,                                       !- Interpolate to Timestep
  24,                                     !- Hour 1
  0,                                      !- Minute 1
  0;                                      !- Value Until Time 1

OS:Schedule:Day,
  {835d781e-b034-4ed2-baa0-011544d7bdd9}, !- Handle
  Schedule Day 3,                         !- Name
  ,                                       !- Schedule Type Limits Name
  ,                                       !- Interpolate to Timestep
  24,                                     !- Hour 1
  0,                                      !- Minute 1
  0;                                      !- Value Until Time 1

OS:Schedule:Day,
  {48789082-798b-4d15-a071-83efa145db51}, !- Handle
  0800|1600|PrimarySchool|default|hoo Summer Design Day, !- Name
  {955060c5-aa1e-431d-ae04-84a80442b120}, !- Schedule Type Limits Name
  ,                                       !- Interpolate to Timestep
  24,                                     !- Hour 1
  0,                                      !- Minute 1
  1;                                      !- Value Until Time 1

OS:DefaultScheduleSet,
  {5f01dace-0394-4f4f-86f1-9aea1c7c5f80}, !- Handle
  Building Hours of Operation,            !- Name
  {9bdb1ce3-2e2c-4c34-b439-3dec4ba3c4ce}, !- Hours of Operation Schedule Name
  ,                                       !- Number of People Schedule Name
  ,                                       !- People Activity Level Schedule Name
  ,                                       !- Lighting Schedule Name
  ,                                       !- Electric Equipment Schedule Name
  ,                                       !- Gas Equipment Schedule Name
  ,                                       !- Hot Water Equipment Schedule Name
  ,                                       !- Infiltration Schedule Name
  ,                                       !- Steam Equipment Schedule Name
  ;                                       !- Other Equipment Schedule Name

OS:ScheduleTypeLimits,
  {955060c5-aa1e-431d-ae04-84a80442b120}, !- Handle
  OnOff,                                  !- Name
  0,                                      !- Lower Limit Value {BasedOnField A4}
  1,                                      !- Upper Limit Value {BasedOnField A4}
  Discrete,                               !- Numeric Type
  Availability;                           !- Unit Type

OS:Schedule:Ruleset,
  {f09c0ee9-f19a-452b-82fc-8966590644c2}, !- Handle
  0800|1600|PrimarySchool|default|rh,     !- Name
  {c2acb045-d3df-4cff-8f71-04a2923bf4f4}, !- Schedule Type Limits Name
  {95986ead-804f-4756-a754-eac29e15a97b}, !- Default Day Schedule Name
  {44d8f8c8-378d-4f42-a75e-dc4031af7a75}, !- Summer Design Day Schedule Name
  {409a3e83-3a6b-42f8-bab2-68062b6f9850}; !- Winter Design Day Schedule Name

OS:ScheduleTypeLimits,
  {c2acb045-d3df-4cff-8f71-04a2923bf4f4}, !- Handle
  Dimensionless Schedule Type Limits,     !- Name
  ,                                       !- Lower Limit Value {BasedOnField A4}
  ,                                       !- Upper Limit Value {BasedOnField A4}
  Continuous,                             !- Numeric Type
  Dimensionless;                          !- Unit Type

OS:Schedule:Day,
  {95986ead-804f-4756-a754-eac29e15a97b}, !- Handle
  0800|1600|PrimarySchool|default|rh |default, !- Name
  {c2acb045-d3df-4cff-8f71-04a2923bf4f4}, !- Schedule Type Limits Name
  ,                                       !- Interpolate to Timestep
  24,                                     !- Hour 1
  0,                                      !- Minute 1
  50;                                     !- Value Until Time 1

OS:Schedule:Day,
  {44d8f8c8-378d-4f42-a75e-dc4031af7a75}, !- Handle
  0800|1600|PrimarySchool|default|rh Summer Design Day, !- Name
  {c2acb045-d3df-4cff-8f71-04a2923bf4f4}, !- Schedule Type Limits Name
  ,                                       !- Interpolate to Timestep
  24,                                     !- Hour 1
  0,                                      !- Minute 1
  50;                                     !- Value Until Time 1

OS:Schedule:Day,
  {409a3e83-3a6b-42f8-bab2-68062b6f9850}, !- Handle
  0800|1600|PrimarySchool|default|rh Winter Design Day, !- Name
  {c2acb045-d3df-4cff-8f71-04a2923bf4f4}, !- Schedule Type Limits Name
  ,                                       !- Interpolate to Timestep
  24,                                     !- Hour 1
  0,                                      !- Minute 1
  50;                                     !- Value Until Time 1

OS:Schedule:Ruleset,
  {0f0f93c1-816d-4b33-82e3-8c3318454e38}, !- Handle
  0800|1600|PrimarySchool|Kitchen|elec_equip, !- Name
  {ce553203-26f8-40bf-9a95-e8c169f8883e}, !- Schedule Type Limits Name
  {322f24b9-d24e-4b95-ac39-851fcbe7f584}, !- Default Day Schedule Name
  {f4043a64-1ce6-46d2-a731-70b920d528ba}, !- Summer Design Day Schedule Name
  {ca7a91e4-d0fb-45d6-b68c-705e13bc57da}; !- Winter Design Day Schedule Name

OS:ScheduleTypeLimits,
  {ce553203-26f8-40bf-9a95-e8c169f8883e}, !- Handle
  Equipment Schedule Type Limits,         !- Name
  0,                                      !- Lower Limit Value {BasedOnField A4}
  1,                                      !- Upper Limit Value {BasedOnField A4}
  Continuous,                             !- Numeric Type
  Dimensionless;                          !- Unit Type

OS:Schedule:Day,
  {322f24b9-d24e-4b95-ac39-851fcbe7f584}, !- Handle
  0800|1600|PrimarySchool|Kitchen|elec_equip |default, !- Name
  {ce553203-26f8-40bf-9a95-e8c169f8883e}, !- Schedule Type Limits Name
  ,                                       !- Interpolate to Timestep
  8,                                      !- Hour 1
  0,                                      !- Minute 1
  0.1,                                    !- Value Until Time 1
  10,                                     !- Hour 2
  0,                                      !- Minute 2
  0.15,                                   !- Value Until Time 2
  13,                                     !- Hour 3
  0,                                      !- Minute 3
  0.25,                                   !- Value Until Time 3
  15,                                     !- Hour 4
  0,                                      !- Minute 4
  0.15,                                   !- Value Until Time 4
  24,                                     !- Hour 5
  0,                                      !- Minute 5
  0.1;                                    !- Value Until Time 5

OS:Schedule:Day,
  {f4043a64-1ce6-46d2-a731-70b920d528ba}, !- Handle
  0800|1600|PrimarySchool|Kitchen|elec_equip Summer Design Day, !- Name
  {ce553203-26f8-40bf-9a95-e8c169f8883e}, !- Schedule Type Limits Name
  ,                                       !- Interpolate to Timestep
  8,                                      !- Hour 1
  0,                                      !- Minute 1
  0.1,                                    !- Value Until Time 1
  10,                                     !- Hour 2
  0,                                      !- Minute 2
  0.15,                                   !- Value Until Time 2
  13,                                     !- Hour 3
  0,                                      !- Minute 3
  0.25,                                   !- Value Until Time 3
  15,                                     !- Hour 4
  0,                                      !- Minute 4
  0.15,                                   !- Value Until Time 4
  24,                                     !- Hour 5
  0,                                      !- Minute 5
  0.1;                                    !- Value Until Time 5

OS:Schedule:Day,
  {ca7a91e4-d0fb-45d6-b68c-705e13bc57da}, !- Handle
  0800|1600|PrimarySchool|Kitchen|elec_equip Winter Design Day, !- Name
  {ce553203-26f8-40bf-9a95-e8c169f8883e}, !- Schedule Type Limits Name
  ,                                       !- Interpolate to Timestep
  24,                                     !- Hour 1
  0,                                      !- Minute 1
  0.1;                                    !- Value Until Time 1

OS:Schedule:Rule,
  {6eaa3e5c-a55f-4410-9e59-f8b01fb5dc51}, !- Handle
  0800|1600|PrimarySchool|Kitchen|elec_equip |1/1-6/30|Sat/Sun Rule, !- Name
  {0f0f93c1-816d-4b33-82e3-8c3318454e38}, !- Schedule Ruleset Name
  0,                                      !- Rule Order
  {2c57df19-5bf2-4f0f-8fca-7e054197f447}, !- Day Schedule Name
  Yes,                                    !- Apply Sunday
  ,                                       !- Apply Monday
  ,                                       !- Apply Tuesday
  ,                                       !- Apply Wednesday
  ,                                       !- Apply Thursday
  ,                                       !- Apply Friday
  Yes,                                    !- Apply Saturday
  ,                                       !- Apply Holiday
  DateRange,                              !- Date Specification Type
  1,                                      !- Start Month
  1,                                      !- Start Day
  6,                                      !- End Month
  30;                                     !- End Day

OS:Schedule:Day,
  {2c57df19-5bf2-4f0f-8fca-7e054197f447}, !- Handle
  0800|1600|PrimarySchool|Kitchen|elec_equip |1/1-6/30|Sat/Sun, !- Name
  {ce553203-26f8-40bf-9a95-e8c169f8883e}, !- Schedule Type Limits Name
  ,                                       !- Interpolate to Timestep
  24,                                     !- Hour 1
  0,                                      !- Minute 1
  0.1;                                    !- Value Until Time 1

OS:Schedule:Rule,
  {470af1a3-86af-48a0-ab78-f75dc8c8f05e}, !- Handle
  0800|1600|PrimarySchool|Kitchen|elec_equip |7/1-9/1|Mon/Tue/Wed/Thu/Fri/Sat/Sun Rule, !- Name
  {0f0f93c1-816d-4b33-82e3-8c3318454e38}, !- Schedule Ruleset Name
  1,                                      !- Rule Order
  {63a6875c-11c0-4693-83ad-ffa634367d3a}, !- Day Schedule Name
  Yes,                                    !- Apply Sunday
  Yes,                                    !- Apply Monday
  Yes,                                    !- Apply Tuesday
  Yes,                                    !- Apply Wednesday
  Yes,                                    !- Apply Thursday
  Yes,                                    !- Apply Friday
  Yes,                                    !- Apply Saturday
  ,                                       !- Apply Holiday
  DateRange,                              !- Date Specification Type
  7,                                      !- Start Month
  1,                                      !- Start Day
  9,                                      !- End Month
  1;                                      !- End Day

OS:Schedule:Day,
  {63a6875c-11c0-4693-83ad-ffa634367d3a}, !- Handle
  0800|1600|PrimarySchool|Kitchen|elec_equip |7/1-9/1|Mon/Tue/Wed/Thu/Fri/Sat/Sun, !- Name
  {ce553203-26f8-40bf-9a95-e8c169f8883e}, !- Schedule Type Limits Name
  ,                                       !- Interpolate to Timestep
  8,                                      !- Hour 1
  0,                                      !- Minute 1
  0.1,                                    !- Value Until Time 1
  10,                                     !- Hour 2
  0,                                      !- Minute 2
  0.13,                                   !- Value Until Time 2
  13,                                     !- Hour 3
  0,                                      !- Minute 3
  0.2,                                    !- Value Until Time 3
  15,                                     !- Hour 4
  0,                                      !- Minute 4
  0.13,                                   !- Value Until Time 4
  24,                                     !- Hour 5
  0,                                      !- Minute 5
  0.1;                                    !- Value Until Time 5

OS:Schedule:Rule,
  {e2db37b1-3a06-428d-879e-e6d0e6e8f951}, !- Handle
  0800|1600|PrimarySchool|Kitchen|elec_equip |7/1-9/1|Sat/Sun Rule, !- Name
  {0f0f93c1-816d-4b33-82e3-8c3318454e38}, !- Schedule Ruleset Name
  2,                                      !- Rule Order
  {93a3f21e-6213-447a-a71d-d1dbe545203b}, !- Day Schedule Name
  Yes,                                    !- Apply Sunday
  ,                                       !- Apply Monday
  ,                                       !- Apply Tuesday
  ,                                       !- Apply Wednesday
  ,                                       !- Apply Thursday
  ,                                       !- Apply Friday
  Yes,                                    !- Apply Saturday
  ,                                       !- Apply Holiday
  DateRange,                              !- Date Specification Type
  7,                                      !- Start Month
  1,                                      !- Start Day
  9,                                      !- End Month
  1;                                      !- End Day

OS:Schedule:Day,
  {93a3f21e-6213-447a-a71d-d1dbe545203b}, !- Handle
  0800|1600|PrimarySchool|Kitchen|elec_equip |7/1-9/1|Sat/Sun, !- Name
  {ce553203-26f8-40bf-9a95-e8c169f8883e}, !- Schedule Type Limits Name
  ,                                       !- Interpolate to Timestep
  24,                                     !- Hour 1
  0,                                      !- Minute 1
  0.1;                                    !- Value Until Time 1

OS:Schedule:Rule,
  {e659ab37-340e-4f8b-9adf-58fb4f755596}, !- Handle
  0800|1600|PrimarySchool|Kitchen|elec_equip |9/1-12/31|Mon/Tue/Wed/Thu/Fri/Sat/Sun Rule, !- Name
  {0f0f93c1-816d-4b33-82e3-8c3318454e38}, !- Schedule Ruleset Name
  3,                                      !- Rule Order
  {00d392ec-16cc-4afa-abff-bb8f67169855}, !- Day Schedule Name
  Yes,                                    !- Apply Sunday
  Yes,                                    !- Apply Monday
  Yes,                                    !- Apply Tuesday
  Yes,                                    !- Apply Wednesday
  Yes,                                    !- Apply Thursday
  Yes,                                    !- Apply Friday
  Yes,                                    !- Apply Saturday
  ,                                       !- Apply Holiday
  DateRange,                              !- Date Specification Type
  9,                                      !- Start Month
  1,                                      !- Start Day
  12,                                     !- End Month
  31;                                     !- End Day

OS:Schedule:Day,
  {00d392ec-16cc-4afa-abff-bb8f67169855}, !- Handle
  0800|1600|PrimarySchool|Kitchen|elec_equip |9/1-12/31|Mon/Tue/Wed/Thu/Fri/Sat/Sun, !- Name
  {ce553203-26f8-40bf-9a95-e8c169f8883e}, !- Schedule Type Limits Name
  ,                                       !- Interpolate to Timestep
  8,                                      !- Hour 1
  0,                                      !- Minute 1
  0.1,                                    !- Value Until Time 1
  10,                                     !- Hour 2
  0,                                      !- Minute 2
  0.15,                                   !- Value Until Time 2
  13,                                     !- Hour 3
  0,                                      !- Minute 3
  0.25,                                   !- Value Until Time 3
  15,                                     !- Hour 4