
OS:Version,
  {632160c0-5de2-4c7c-af72-8b2391147f21}, !- Handle
  1.5.5;                                  !- Version Identifier

OS:ClimateZones,
  {135edfab-17e7-40db-a436-27d385a8cd6d}, !- Handle
  ,                                       !- Active Institution
  ,                                       !- Active Year
  ASHRAE,                                 !- Climate Zone Institution Name 1
  ANSI/ASHRAE Standard 169,               !- Climate Zone Document Name 1
  2006,                                   !- Climate Zone Document Year 1
  ,                                       !- Climate Zone Value 1
  CEC,                                    !- Climate Zone Institution Name 2
  California Climate Zone Descriptions,   !- Climate Zone Document Name 2
  1995,                                   !- Climate Zone Document Year 2
  ;                                       !- Climate Zone Value 2

OS:YearDescription,
  {513d8dda-86cb-442a-b01c-1f7f0e0ac70e}; !- Handle

OS:RadianceParameters,
  {270a96f1-3c86-4b75-a667-cdf22790e2c8}, !- Handle
  1,                                      !- Accumulated Rays per Record
  0,                                      !- Direct Threshold
  1,                                      !- Direct Certainty
  1,                                      !- Direct Jitter
  1,                                      !- Direct Pretest
  6,                                      !- Ambient Bounces VMX
  2,                                      !- Ambient Bounces DMX
  4050,                                   !- Ambient Divisions VMX
  512,                                    !- Ambient Divisions DMX
  256,                                    !- Ambient Supersamples
  0.001,                                  !- Limit Weight VMX
  0.001,                                  !- Limit Weight DMX
  500,                                    !- Klems Sampling Density
  146;                                    !- Sky Discretization Resolution

OS:SimulationControl,
  {2c487a4c-bac9-4ac5-b669-1e49d9da7c2b}, !- Handle
  ,                                       !- Do Zone Sizing Calculation
  ,                                       !- Do System Sizing Calculation
  ,                                       !- Do Plant Sizing Calculation
  No,                                     !- Run Simulation for Sizing Periods
  ,                                       !- Run Simulation for Weather File Run Periods
  0.04,                                   !- Loads Convergence Tolerance Value
  ,                                       !- Temperature Convergence Tolerance Value {deltaC}
  ,                                       !- Solar Distribution
  ,                                       !- Maximum Number of Warmup Days
  2;                                      !- Minimum Number of Warmup Days

OS:Sizing:Parameters,
  {dde5af6f-7923-4600-a28a-7556673a0266}, !- Handle
  1.25,                                   !- Heating Sizing Factor
  1.15;                                   !- Cooling Sizing Factor

OS:ProgramControl,
  {05027a99-f2b3-4aeb-afc6-1425fbb4371d}; !- Handle

OS:Timestep,
  {4ebc9f1e-4707-402e-9844-67eb1ffbd522}, !- Handle
  2;                                      !- Number of Timesteps per Hour

OS:OutputControl:ReportingTolerances,
  {65797aa2-06a9-45fe-b69d-bc6e060399d3}; !- Handle

OS:ConvergenceLimits,
  {9fc11aba-8822-4f3d-970c-46391ba4040d}; !- Handle

OS:ShadowCalculation,
  {ca758bea-4416-4626-9bba-3d8795c79bd6}, !- Handle
  7,                                      !- Calculation Frequency
  15000;                                  !- Maximum Figures in Shadow Overlap Calculations

OS:SurfaceConvectionAlgorithm:Inside,
  {aaabfc36-718a-4ab0-b622-f186ebb45230}, !- Handle
  TARP;                                   !- Algorithm

OS:SurfaceConvectionAlgorithm:Outside,
  {9a0a9f6f-4bbd-4b12-a121-9492a1fcd7d6}, !- Handle
  DOE-2;                                  !- Algorithm

OS:HeatBalanceAlgorithm,
  {9d93e563-e1e0-46d7-9e39-d1c8aceb7212}, !- Handle
  ConductionTransferFunction,             !- Algorithm
  200;                                    !- Surface Temperature Upper Limit {F}

OS:ZoneAirHeatBalanceAlgorithm,
  {8520d93e-310f-4696-9bcd-36228bfdd743}, !- Handle
  AnalyticalSolution;                     !- Algorithm

OS:ZoneAirContaminantBalance,
  {eb5fc3ae-fb22-4160-8fcb-3e3b22b000d3}; !- Handle

OS:ZoneCapacitanceMultiplier:ResearchSpecial,
  {4020ce4f-5a7a-4849-8028-8305d7b751b1}, !- Handle
  ,                                       !- Temperature Capacity Multiplier
  ,                                       !- Humidity Capacity Multiplier
  ;                                       !- Carbon Dioxide Capacity Multiplier

OS:RunPeriod,
  {28df894d-6af9-4fb8-8f56-df1753344aa3}, !- Handle
  Run Period 1,                           !- Name
  1,                                      !- Begin Month
  1,                                      !- Begin Day of Month
  12,                                     !- End Month
  31,                                     !- End Day of Month
  ,                                       !- Use Weather File Holidays and Special Days
  ,                                       !- Use Weather File Daylight Saving Period
  ,                                       !- Apply Weekend Holiday Rule
  ,                                       !- Use Weather File Rain Indicators
  ,                                       !- Use Weather File Snow Indicators
  ;                                       !- Number of Times Runperiod to be Repeated

OS:Building,
  {bf305633-c5a1-4881-9edf-ca5e1a8e1274}, !- Handle
  Building 1,                             !- Name
  ,                                       !- Building Sector Type
  ,                                       !- North Axis {deg}
  ,                                       !- Nominal Floor to Floor Height {m}
  ,                                       !- Space Type Name
  ,                                       !- Default Construction Set Name
  {adc39059-4f22-42f5-bba6-722e49c768a8}, !- Default Schedule Set Name
  ,                                       !- Standards Number of Stories
  ,                                       !- Standards Number of Above Ground Stories
  PrimarySchool;                          !- Standards Building Type

OS:LifeCycleCost:Parameters,
  {231cf8a0-f0e7-4251-a99f-11f0d464e661}, !- Handle
  FEMP,                                   !- Analysis Type
  ,                                       !- Discounting Convention
  ,                                       !- Inflation Approach
  ,                                       !- Real Discount Rate
  ,                                       !- Nominal Discount Rate
  ,                                       !- Inflation
  ,                                       !- Base Date Month
  ,                                       !- Base Date Year
  ,                                       !- Service Date Month
  ,                                       !- Service Date Year
  ,                                       !- Length of Study Period in Years
  ,                                       !- Tax Rate
  ,                                       !- Depreciation Method
  Yes;                                    !- Use NIST Fuel Escalation Rates

OS:Facility,
  {3ba8e45b-b833-44eb-a723-ea6c3946dc96}; !- Handle

OS:SpaceType,
  {892e2d87-28df-47b8-bd39-1eb2e4ef5b2e}, !- Handle
  PrimarySchool|BlendEdu|DOE Ref 2004|ASHRAE 169-2006-5A, !- Name
  {1c9f4506-4aef-42da-b352-50dcdb40fe7e}, !- Default Construction Set Name
  ,                                       !- Default Schedule Set Name
  {218a4cbf-bfd3-43fe-902f-fdf0484d757f}, !- Group Rendering Name
  {12d4eaa7-f2f6-4484-88d5-544945c8adca}, !- Design Specification Outdoor Air Object Name
  PrimarySchool,                          !- Standards Building Type
  BlendEdu;                               !- Standards Space Type

OS:Rendering:Color,
  {218a4cbf-bfd3-43fe-902f-fdf0484d757f}, !- Handle
  Rendering Color 1,                      !- Name
  120,                                    !- Rendering Red Value
  230,                                    !- Rendering Green Value
  199;                                    !- Rendering Blue Value

OS:SpaceType,
  {73821e78-f0fb-42c0-94ed-3491ebdfcb3b}, !- Handle
  PrimarySchool|BlendOff|DOE Ref 2004|ASHRAE 169-2006-5A, !- Name
  {1c9f4506-4aef-42da-b352-50dcdb40fe7e}, !- Default Construction Set Name
  ,                                       !- Default Schedule Set Name
  {1b58a05e-552c-401f-9981-6f30029ed4d6}, !- Group Rendering Name
  {6b3406b2-b975-4a7e-bde0-2773da35d2bd}, !- Design Specification Outdoor Air Object Name
  PrimarySchool,                          !- Standards Building Type
  BlendOff;                               !- Standards Space Type

OS:Rendering:Color,
  {1b58a05e-552c-401f-9981-6f30029ed4d6}, !- Handle
  Rendering Color 2,                      !- Name
  120,                                    !- Rendering Red Value
  230,                                    !- Rendering Green Value
  199;                                    !- Rendering Blue Value

OS:SpaceType,
  {de9a5645-50b5-4073-ba5a-d69ee1865c4e}, !- Handle
  PrimarySchool|Library|DOE Ref 2004|ASHRAE 169-2006-5A, !- Name
  {1c9f4506-4aef-42da-b352-50dcdb40fe7e}, !- Default Construction Set Name
  {95f4b0a6-1f25-498b-b8b2-db4e07cb9c47}, !- Default Schedule Set Name
  {0fabafd6-3390-471a-a5a7-014582635edb}, !- Group Rendering Name
  {7d6ad1af-8f41-4e25-b556-09e7da607cd2}, !- Design Specification Outdoor Air Object Name
  PrimarySchool,                          !- Standards Building Type
  Library;                                !- Standards Space Type

OS:Rendering:Color,
  {0fabafd6-3390-471a-a5a7-014582635edb}, !- Handle
  Rendering Color 3,                      !- Name
  230,                                    !- Rendering Red Value
  196,                                    !- Rendering Green Value
  120;                                    !- Rendering Blue Value

OS:SpaceType,
  {b3fc4fd8-c1fa-453b-96f9-00cae716a520}, !- Handle
  PrimarySchool|Gym|DOE Ref 2004|ASHRAE 169-2006-5A, !- Name
  {1c9f4506-4aef-42da-b352-50dcdb40fe7e}, !- Default Construction Set Name
  {7f503eff-e6cd-4442-a00e-a6ebd5559187}, !- Default Schedule Set Name
  {e05d431d-d1ed-48df-aa97-1bc081c69940}, !- Group Rendering Name
  {36b6fb3c-928c-4e38-a2a3-58d2b453b13a}, !- Design Specification Outdoor Air Object Name
  PrimarySchool,                          !- Standards Building Type
  Gym;                                    !- Standards Space Type

OS:Rendering:Color,
  {e05d431d-d1ed-48df-aa97-1bc081c69940}, !- Handle
  Rendering Color 4,                      !- Name
  154,                                    !- Rendering Red Value
  230,                                    !- Rendering Green Value
  120;                                    !- Rendering Blue Value

OS:SpaceType,
  {86b2546d-17ef-4bec-b218-6f88cdb24815}, !- Handle
  PrimarySchool|Cafeteria|DOE Ref 2004|ASHRAE 169-2006-5A, !- Name
  {1c9f4506-4aef-42da-b352-50dcdb40fe7e}, !- Default Construction Set Name
  {9867408e-3a70-4d99-80db-ecb06466377e}, !- Default Schedule Set Name
  {fb0a7b50-5439-4718-8c10-82f0c1b0fd4e}, !- Group Rendering Name
  {6f81a5b6-1987-4cd9-98ea-6a138aea1029}, !- Design Specification Outdoor Air Object Name
  PrimarySchool,                          !- Standards Building Type
  Cafeteria;                              !- Standards Space Type

OS:Rendering:Color,
  {fb0a7b50-5439-4718-8c10-82f0c1b0fd4e}, !- Handle
  Rendering Color 5,                      !- Name
  31,                                     !- Rendering Red Value
  169,                                    !- Rendering Green Value
  34;                                     !- Rendering Blue Value

OS:SpaceType,
  {af573f34-c72e-487c-8863-33dbcca0e95b}, !- Handle
  PrimarySchool|Kitchen|DOE Ref 2004|ASHRAE 169-2006-5A, !- Name
  {1c9f4506-4aef-42da-b352-50dcdb40fe7e}, !- Default Construction Set Name
  {13157e1d-e17c-4ca1-beb8-eea89f871352}, !- Default Schedule Set Name
  {cf0c3add-db2d-4f6e-8293-f2c674bb7c25}, !- Group Rendering Name
  {ba4e0f78-bf74-459c-9c4d-b908a96d6758}, !- Design Specification Outdoor Air Object Name
  PrimarySchool,                          !- Standards Building Type
  Kitchen;                                !- Standards Space Type

OS:Rendering:Color,
  {cf0c3add-db2d-4f6e-8293-f2c674bb7c25}, !- Handle
  Rendering Color 6,                      !- Name
  78,                                     !- Rendering Red Value
  222,                                    !- Rendering Green Value
  133;                                    !- Rendering Blue Value

OS:Schedule:Ruleset,
  {ef8c7161-ef77-4df3-87e3-bf546793f567}, !- Handle
  0800|1600|PrimarySchool|default|hoo,    !- Name
  {2d5789aa-a29a-451a-8fb9-268fed69edf8}, !- Schedule Type Limits Name
  {12bff8e3-2740-4ab0-960f-b5fa34a0db50}, !- Default Day Schedule Name
  {70d717b4-1b0a-45ce-a4a3-d10e43e202c2}, !- Summer Design Day Schedule Name
  {2b746d91-f7e9-4eb7-876c-4a905679d6f7}; !- Winter Design Day Schedule Name

OS:Schedule:Day,
  {12bff8e3-2740-4ab0-960f-b5fa34a0db50}, !- Handle
  0800|1600|PrimarySchool|default|hoo Schedule Week Day, !- Name
  {2d5789aa-a29a-451a-8fb9-268fed69edf8}, !- Schedule Type Limits Name
  ,                                       !- Interpolate to Timestep
  8,                                      !- Hour 1
  0,                                      !- Minute 1
  0,                                      !- Value Until Time 1
  16,                                     !- Hour 2
  0,                                      !- Minute 2
  1,                                      !- Value Until Time 2
  24,                                     !- Hour 3
  0,                                      !- Minute 3
  0;                                      !- Value Until Time 3

OS:Schedule:Day,
  {54517963-98f6-4e79-bcb1-5095e31be369}, !- Handle
  Schedule Day 2,                         !- Name
  ,                                       !- Schedule Type Limits Name
  ,                                       !- Interpolate to Timestep
  24,                                     !- Hour 1
  0,                                      !- Minute 1
  0;                                      !- Value Until Time 1

OS:Schedule:Day,
  {2b746d91-f7e9-4eb7-876c-4a905679d6f7}, !- Handle
  0800|1600|PrimarySchool|default|hoo Winter Design Day, !- Name
  {2d5789aa-a29a-451a-8fb9-268fed69edf8}, !- Schedule Type Limits Name
  ,                                       !- Interpolate to Timestep
  24,                                     !- Hour 1
  0,                                      !- Minute 1
  0;                                      !- Value Until Time 1

OS:Schedule:Day,
  {0517f9d9-0bdc-440f-bb08-7fbc13570afb}, !- Handle
  Schedule Day 3,                         !- Name
  ,                                       !- Schedule Type Limits Name
  ,                                       !- Interpolate to Timestep
  24,                                     !- Hour 1
  0,                                      !- Minute 1
  0;                                      !- Value Until Time 1

OS:Schedule:Day,
  {70d717b4-1b0a-45ce-a4a3-d10e43e202c2}, !- Handle
  0800|1600|PrimarySchool|default|hoo Summer Design Day, !- Name
  {2d5789aa-a29a-451a-8fb9-268fed69edf8}, !- Schedule Type Limits Name
  ,                                       !- Interpolate to Timestep
  24,                                     !- Hour 1
  0,                                      !- Minute 1
  1;                                      !- Value Until Time 1

OS:DefaultScheduleSet,
  {adc39059-4f22-42f5-bba6-722e49c768a8}, !- Handle
  Building Hours of Operation,            !- Name
  {ef8c7161-ef77-4df3-87e3-bf546793f567}, !- Hours of Operation Schedule Name
  ,                                       !- Number of People Schedule Name
  ,                                       !- People Activity Level Schedule Name
  ,                                       !- Lighting Schedule Name
  ,                                       !- Electric Equipment Schedule Name
  ,                                       !- Gas Equipment Schedule Name
  ,                                       !- Hot Water Equipment Schedule Name
  ,                                       !- Infiltration Schedule Name
  ,                                       !- Steam Equipment Schedule Name
  ;                                       !- Other Equipment Schedule Name

OS:ScheduleTypeLimits,
  {2d5789aa-a29a-451a-8fb9-268fed69edf8}, !- Handle
  OnOff,                                  !- Name
  0,                                      !- Lower Limit Value {BasedOnField A4}
  1,                                      !- Upper Limit Value {BasedOnField A4}
  Discrete,                               !- Numeric Type
  Availability;                           !- Unit Type

OS:Schedule:Ruleset,
  {d6b5aaa7-b220-4d9c-9347-8f13a8446f4b}, !- Handle
  0800|1600|PrimarySchool|default|rh,     !- Name
  {2176c67f-7d7c-4e32-90a2-44ac7a0cab09}, !- Schedule Type Limits Name
  {8d790de6-b18f-4d5f-bf8a-cb6efe90ab70}, !- Default Day Schedule Name
  {0c1b3354-4f12-4721-a2cc-e5b03fe5ed70}, !- Summer Design Day Schedule Name
  {99481bde-130b-45ef-8be6-95ba55915ce4}; !- Winter Design Day Schedule Name

OS:ScheduleTypeLimits,
  {2176c67f-7d7c-4e32-90a2-44ac7a0cab09}, !- Handle
  Dimensionless Schedule Type Limits,     !- Name
  ,                                       !- Lower Limit Value {BasedOnField A4}
  ,                                       !- Upper Limit Value {BasedOnField A4}
  Continuous,                             !- Numeric Type
  Dimensionless;                          !- Unit Type

OS:Schedule:Day,
  {8d790de6-b18f-4d5f-bf8a-cb6efe90ab70}, !- Handle
  0800|1600|PrimarySchool|default|rh |default, !- Name
  {2176c67f-7d7c-4e32-90a2-44ac7a0cab09}, !- Schedule Type Limits Name
  ,                                       !- Interpolate to Timestep
  24,                                     !- Hour 1
  0,                                      !- Minute 1
  50;                                     !- Value Until Time 1

OS:Schedule:Day,
  {0c1b3354-4f12-4721-a2cc-e5b03fe5ed70}, !- Handle
  0800|1600|PrimarySchool|default|rh Summer Design Day, !- Name
  {2176c67f-7d7c-4e32-90a2-44ac7a0cab09}, !- Schedule Type Limits Name
  ,                                       !- Interpolate to Timestep
  24,                                     !- Hour 1
  0,                                      !- Minute 1
  50;                                     !- Value Until Time 1

OS:Schedule:Day,
  {99481bde-130b-45ef-8be6-95ba55915ce4}, !- Handle
  0800|1600|PrimarySchool|default|rh Winter Design Day, !- Name
  {2176c67f-7d7c-4e32-90a2-44ac7a0cab09}, !- Schedule Type Limits Name
  ,                                       !- Interpolate to Timestep
  24,                                     !- Hour 1
  0,                                      !- Minute 1
  50;                                     !- Value Until Time 1

OS:Schedule:Ruleset,
  {c3dd84bb-c7ea-4722-9985-98f4ee3e935b}, !- Handle
  0800|1600|PrimarySchool|Kitchen|elec_equip, !- Name
  {2dd56fc4-8980-4377-bcf3-76203d1edb4c}, !- Schedule Type Limits Name
  {9bd68dc8-2de3-4141-94b7-50a1327427b5}, !- Default Day Schedule Name
  {6754dc40-3725-4775-aded-3cad00020304}, !- Summer Design Day Schedule Name
  {0029f8b4-f726-4b3c-a261-e75ecd354a6b}; !- Winter Design Day Schedule Name

OS:ScheduleTypeLimits,
  {2dd56fc4-8980-4377-bcf3-76203d1edb4c}, !- Handle
  Equipment Schedule Type Limits,         !- Name
  0,                                      !- Lower Limit Value {BasedOnField A4}
  1,                                      !- Upper Limit Value {BasedOnField A4}
  Continuous,                             !- Numeric Type
  Dimensionless;                          !- Unit Type

OS:Schedule:Day,
  {9bd68dc8-2de3-4141-94b7-50a1327427b5}, !- Handle
  0800|1600|PrimarySchool|Kitchen|elec_equip |default, !- Name
  {2dd56fc4-8980-4377-bcf3-76203d1edb4c}, !- Schedule Type Limits Name
  ,                                       !- Interpolate to Timestep
  8,                                      !- Hour 1
  0,                                      !- Minute 1
  0.1,                                    !- Value Until Time 1
  10,                                     !- Hour 2
  0,                                      !- Minute 2
  0.15,                                   !- Value Until Time 2
  13,                                     !- Hour 3
  0,                                      !- Minute 3
  0.25,                                   !- Value Until Time 3
  15,                                     !- Hour 4
  0,                                      !- Minute 4
  0.15,                                   !- Value Until Time 4
  24,                                     !- Hour 5
  0,                                      !- Minute 5
  0.1;                                    !- Value Until Time 5

OS:Schedule:Day,
  {6754dc40-3725-4775-aded-3cad00020304}, !- Handle
  0800|1600|PrimarySchool|Kitchen|elec_equip Summer Design Day, !- Name
  {2dd56fc4-8980-4377-bcf3-76203d1edb4c}, !- Schedule Type Limits Name
  ,                                       !- Interpolate to Timestep
  8,                                      !- Hour 1
  0,                                      !- Minute 1
  0.1,                                    !- Value Until Time 1
  10,                                     !- Hour 2
  0,                                      !- Minute 2
  0.15,                                   !- Value Until Time 2
  13,                                     !- Hour 3
  0,                                      !- Minute 3
  0.25,                                   !- Value Until Time 3
  15,                                     !- Hour 4
  0,                                      !- Minute 4
  0.15,                                   !- Value Until Time 4
  24,                                     !- Hour 5
  0,                                      !- Minute 5
  0.1;                                    !- Value Until Time 5

OS:Schedule:Day,
  {0029f8b4-f726-4b3c-a261-e75ecd354a6b}, !- Handle
  0800|1600|PrimarySchool|Kitchen|elec_equip Winter Design Day, !- Name
  {2dd56fc4-8980-4377-bcf3-76203d1edb4c}, !- Schedule Type Limits Name
  ,                                       !- Interpolate to Timestep
  24,                                     !- Hour 1
  0,                                      !- Minute 1
  0.1;                                    !- Value Until Time 1

OS:Schedule:Rule,
  {fb7c839a-cb74-4570-a1bb-0ebe9f6c3f95}, !- Handle
  0800|1600|PrimarySchool|Kitchen|elec_equip |1/1-6/30|Sat/Sun Rule, !- Name
  {c3dd84bb-c7ea-4722-9985-98f4ee3e935b}, !- Schedule Ruleset Name
  0,                                      !- Rule Order
  {f23f88c9-16a5-4721-8e26-352f37053ef9}, !- Day Schedule Name
  Yes,                                    !- Apply Sunday
  ,                                       !- Apply Monday
  ,                                       !- Apply Tuesday
  ,                                       !- Apply Wednesday
  ,                                       !- Apply Thursday
  ,                                       !- Apply Friday
  Yes,                                    !- Apply Saturday
  ,                                       !- Apply Holiday
  DateRange,                              !- Date Specification Type
  1,                                      !- Start Month
  1,                                      !- Start Day
  6,                                      !- End Month
  30;                                     !- End Day

OS:Schedule:Day,
  {f23f88c9-16a5-4721-8e26-352f37053ef9}, !- Handle
  0800|1600|PrimarySchool|Kitchen|elec_equip |1/1-6/30|Sat/Sun, !- Name
  {2dd56fc4-8980-4377-bcf3-76203d1edb4c}, !- Schedule Type Limits Name
  ,                                       !- Interpolate to Timestep
  24,                                     !- Hour 1
  0,                                      !- Minute 1
  0.1;                                    !- Value Until Time 1

OS:Schedule:Rule,
  {f9495774-6619-4a48-b285-bfc651402afe}, !- Handle
  0800|1600|PrimarySchool|Kitchen|elec_equip |7/1-9/1|Mon/Tue/Wed/Thu/Fri/Sat/Sun Rule, !- Name
  {c3dd84bb-c7ea-4722-9985-98f4ee3e935b}, !- Schedule Ruleset Name
  1,                                      !- Rule Order
  {74f80e07-2a73-4c48-baf3-fe060a5786a3}, !- Day Schedule Name
  Yes,                                    !- Apply Sunday
  Yes,                                    !- Apply Monday
  Yes,                                    !- Apply Tuesday
  Yes,                                    !- Apply Wednesday
  Yes,                                    !- Apply Thursday
  Yes,                                    !- Apply Friday
  Yes,                                    !- Apply Saturday
  ,                                       !- Apply Holiday
  DateRange,                              !- Date Specification Type
  7,                                      !- Start Month
  1,                                      !- Start Day
  9,                                      !- End Month
  1;                                      !- End Day

OS:Schedule:Day,
  {74f80e07-2a73-4c48-baf3-fe060a5786a3}, !- Handle
  0800|1600|PrimarySchool|Kitchen|elec_equip |7/1-9/1|Mon/Tue/Wed/Thu/Fri/Sat/Sun, !- Name
  {2dd56fc4-8980-4377-bcf3-76203d1edb4c}, !- Schedule Type Limits Name
  ,                                       !- Interpolate to Timestep
  8,                                      !- Hour 1
  0,                                      !- Minute 1
  0.1,                                    !- Value Until Time 1
  10,                                     !- Hour 2
  0,                                      !- Minute 2
  0.13,                                   !- Value Until Time 2
  13,                                     !- Hour 3
  0,                                      !- Minute 3
  0.2,                                    !- Value Until Time 3
  15,                                     !- Hour 4
  0,                                      !- Minute 4
  0.13,                                   !- Value Until Time 4
  24,                                     !- Hour 5
  0,                                      !- Minute 5
  0.1;                                    !- Value Until Time 5

OS:Schedule:Rule,
  {d5fc4ac7-2a81-4b3e-86d7-63e6085060ad}, !- Handle
  0800|1600|PrimarySchool|Kitchen|elec_equip |7/1-9/1|Sat/Sun Rule, !- Name
  {c3dd84bb-c7ea-4722-9985-98f4ee3e935b}, !- Schedule Ruleset Name
  2,                                      !- Rule Order
  {18983f99-e510-4873-944a-5798f594b5a0}, !- Day Schedule Name
  Yes,                                    !- Apply Sunday
  ,                                       !- Apply Monday
  ,                                       !- Apply Tuesday
  ,                                       !- Apply Wednesday
  ,                                       !- Apply Thursday
  ,                                       !- Apply Friday
  Yes,                                    !- Apply Saturday
  ,                                       !- Apply Holiday
  DateRange,                              !- Date Specification Type
  7,                                      !- Start Month
  1,                                      !- Start Day
  9,                                      !- End Month
  1;                                      !- End Day

OS:Schedule:Day,
  {18983f99-e510-4873-944a-5798f594b5a0}, !- Handle
  0800|1600|PrimarySchool|Kitchen|elec_equip |7/1-9/1|Sat/Sun, !- Name
  {2dd56fc4-8980-4377-bcf3-76203d1edb4c}, !- Schedule Type Limits Name
  ,                                       !- Interpolate to Timestep
  24,                                     !- Hour 1
  0,                                      !- Minute 1
  0.1;                                    !- Value Until Time 1

OS:Schedule:Rule,
  {554608b4-89d8-4cc7-99d0-2990d220709d}, !- Handle
  0800|1600|PrimarySchool|Kitchen|elec_equip |9/1-12/31|Mon/Tue/Wed/Thu/Fri/Sat/Sun Rule, !- Name
  {c3dd84bb-c7ea-4722-9985-98f4ee3e935b}, !- Schedule Ruleset Name
  3,                                      !- Rule Order
  {f62cb839-2f72-44f5-8286-1d45bbc9b584}, !- Day Schedule Name
  Yes,                                    !- Apply Sunday
  Yes,                                    !- Apply Monday
  Yes,                                    !- Apply Tuesday
  Yes,                                    !- Apply Wednesday
  Yes,                                    !- Apply Thursday
  Yes,                                    !- Apply Friday
  Yes,                                    !- Apply Saturday
  ,                                       !- Apply Holiday
  DateRange,                              !- Date Specification Type
  9,                                      !- Start Month
  1,                                      !- Start Day
  12,                                     !- End Month
  31;                                     !- End Day

OS:Schedule:Day,
  {f62cb839-2f72-44f5-8286-1d45bbc9b584}, !- Handle
  0800|1600|PrimarySchool|Kitchen|elec_equip |9/1-12/31|Mon/Tue/Wed/Thu/Fri/Sat/Sun, !- Name
  {2dd56fc4-8980-4377-bcf3-76203d1edb4c}, !- Schedule Type Limits Name
  ,                                       !- Interpolate to Timestep
  8,                                      !- Hour 1
  0,                                      !- Minute 1
  0.1,                                    !- Value Until Time 1
  10,                                     !- Hour 2
  0,                                      !- Minute 2
  0.15,                                   !- Value Until Time 2
  13,                                     !- Hour 3
  0,                                      !- Minute 3
  0.25,                                   !- Value Until Time 3
  15,                                     !- Hour 4
  0,                                      !- Minute 4