
OS:Version,
  {a94224e4-fed0-4f28-91db-d6a20ff83da6}, !- Handle
  1.6.0;                                  !- Version Identifier

OS:ClimateZones,
  {135edfab-17e7-40db-a436-27d385a8cd6d}, !- Handle
  ,                                       !- Active Institution
  ,                                       !- Active Year
  ASHRAE,                                 !- Climate Zone Institution Name 1
  ANSI/ASHRAE Standard 169,               !- Climate Zone Document Name 1
  2006,                                   !- Climate Zone Document Year 1
  ,                                       !- Climate Zone Value 1
  CEC,                                    !- Climate Zone Institution Name 2
  California Climate Zone Descriptions,   !- Climate Zone Document Name 2
  1995,                                   !- Climate Zone Document Year 2
  ;                                       !- Climate Zone Value 2

OS:YearDescription,
  {513d8dda-86cb-442a-b01c-1f7f0e0ac70e}; !- Handle

OS:RadianceParameters,
  {270a96f1-3c86-4b75-a667-cdf22790e2c8}, !- Handle
  1,                                      !- Accumulated Rays per Record
  0,                                      !- Direct Threshold
  1,                                      !- Direct Certainty
  1,                                      !- Direct Jitter
  1,                                      !- Direct Pretest
  6,                                      !- Ambient Bounces VMX
  2,                                      !- Ambient Bounces DMX
  4050,                                   !- Ambient Divisions VMX
  512,                                    !- Ambient Divisions DMX
  256,                                    !- Ambient Supersamples
  0.001,                                  !- Limit Weight VMX
  0.001,                                  !- Limit Weight DMX
  500,                                    !- Klems Sampling Density
  146;                                    !- Sky Discretization Resolution

OS:SimulationControl,
  {2c487a4c-bac9-4ac5-b669-1e49d9da7c2b}, !- Handle
  ,                                       !- Do Zone Sizing Calculation
  ,                                       !- Do System Sizing Calculation
  ,                                       !- Do Plant Sizing Calculation
  No,                                     !- Run Simulation for Sizing Periods
  ,                                       !- Run Simulation for Weather File Run Periods
  0.04,                                   !- Loads Convergence Tolerance Value
  ,                                       !- Temperature Convergence Tolerance Value {deltaC}
  ,                                       !- Solar Distribution
  ,                                       !- Maximum Number of Warmup Days
  2;                                      !- Minimum Number of Warmup Days

OS:Sizing:Parameters,
  {dde5af6f-7923-4600-a28a-7556673a0266}, !- Handle
  1.25,                                   !- Heating Sizing Factor
  1.15;                                   !- Cooling Sizing Factor

OS:ProgramControl,
  {05027a99-f2b3-4aeb-afc6-1425fbb4371d}; !- Handle

OS:Timestep,
  {4ebc9f1e-4707-402e-9844-67eb1ffbd522}, !- Handle
  2;                                      !- Number of Timesteps per Hour

OS:OutputControl:ReportingTolerances,
  {65797aa2-06a9-45fe-b69d-bc6e060399d3}; !- Handle

OS:ConvergenceLimits,
  {9fc11aba-8822-4f3d-970c-46391ba4040d}; !- Handle

OS:ShadowCalculation,
  {ca758bea-4416-4626-9bba-3d8795c79bd6}, !- Handle
  7,                                      !- Calculation Frequency
  15000;                                  !- Maximum Figures in Shadow Overlap Calculations

OS:SurfaceConvectionAlgorithm:Inside,
  {aaabfc36-718a-4ab0-b622-f186ebb45230}, !- Handle
  TARP;                                   !- Algorithm

OS:SurfaceConvectionAlgorithm:Outside,
  {9a0a9f6f-4bbd-4b12-a121-9492a1fcd7d6}, !- Handle
  DOE-2;                                  !- Algorithm

OS:HeatBalanceAlgorithm,
  {9d93e563-e1e0-46d7-9e39-d1c8aceb7212}, !- Handle
  ConductionTransferFunction,             !- Algorithm
  200;                                    !- Surface Temperature Upper Limit {F}

OS:ZoneAirHeatBalanceAlgorithm,
  {8520d93e-310f-4696-9bcd-36228bfdd743}, !- Handle
  AnalyticalSolution;                     !- Algorithm

OS:ZoneAirContaminantBalance,
  {eb5fc3ae-fb22-4160-8fcb-3e3b22b000d3}; !- Handle

OS:ZoneCapacitanceMultiplier:ResearchSpecial,
  {4020ce4f-5a7a-4849-8028-8305d7b751b1}, !- Handle
  ,                                       !- Temperature Capacity Multiplier
  ,                                       !- Humidity Capacity Multiplier
  ;                                       !- Carbon Dioxide Capacity Multiplier

OS:RunPeriod,
  {28df894d-6af9-4fb8-8f56-df1753344aa3}, !- Handle
  Run Period 1,                           !- Name
  1,                                      !- Begin Month
  1,                                      !- Begin Day of Month
  12,                                     !- End Month
  31,                                     !- End Day of Month
  ,                                       !- Use Weather File Holidays and Special Days
  ,                                       !- Use Weather File Daylight Saving Period
  ,                                       !- Apply Weekend Holiday Rule
  ,                                       !- Use Weather File Rain Indicators
  ,                                       !- Use Weather File Snow Indicators
  ;                                       !- Number of Times Runperiod to be Repeated

OS:Building,
  {bf305633-c5a1-4881-9edf-ca5e1a8e1274}, !- Handle
  Building 1,                             !- Name
  ,                                       !- Building Sector Type
  ,                                       !- North Axis {deg}
  ,                                       !- Nominal Floor to Floor Height {m}
  ,                                       !- Space Type Name
  ,                                       !- Default Construction Set Name
  {905693c9-0481-4ff5-a82c-558765a601f4}, !- Default Schedule Set Name
  ,                                       !- Standards Number of Stories
  ,                                       !- Standards Number of Above Ground Stories
  PrimarySchool;                          !- Standards Building Type

OS:LifeCycleCost:Parameters,
  {231cf8a0-f0e7-4251-a99f-11f0d464e661}, !- Handle
  FEMP,                                   !- Analysis Type
  ,                                       !- Discounting Convention
  ,                                       !- Inflation Approach
  ,                                       !- Real Discount Rate
  ,                                       !- Nominal Discount Rate
  ,                                       !- Inflation
  ,                                       !- Base Date Month
  ,                                       !- Base Date Year
  ,                                       !- Service Date Month
  ,                                       !- Service Date Year
  ,                                       !- Length of Study Period in Years
  ,                                       !- Tax Rate
  ,                                       !- Depreciation Method
  Yes;                                    !- Use NIST Fuel Escalation Rates

OS:Facility,
  {3ba8e45b-b833-44eb-a723-ea6c3946dc96}; !- Handle

OS:SpaceType,
  {53dbd31b-c263-48f2-8cf7-b0df555c4739}, !- Handle
  PrimarySchool|BlendEdu|DOE Ref 1980-2004|ASHRAE 169-2006-5A, !- Name
  {6d26518a-477f-42b6-ae9b-d3d244dedb9f}, !- Default Construction Set Name
  ,                                       !- Default Schedule Set Name
  {3edb4d96-76bb-4751-b1da-071bec420757}, !- Group Rendering Name
  {9b224eed-e00e-4e1a-b1f6-478a66a085c0}, !- Design Specification Outdoor Air Object Name
  PrimarySchool,                          !- Standards Building Type
  BlendEdu;                               !- Standards Space Type

OS:Rendering:Color,
  {3edb4d96-76bb-4751-b1da-071bec420757}, !- Handle
  Rendering Color 1,                      !- Name
  120,                                    !- Rendering Red Value
  230,                                    !- Rendering Green Value
  199;                                    !- Rendering Blue Value

OS:SpaceType,
  {da7ded28-17d5-46b2-99ff-ea2ade8dddfc}, !- Handle
  PrimarySchool|BlendOff|DOE Ref 1980-2004|ASHRAE 169-2006-5A, !- Name
  {6d26518a-477f-42b6-ae9b-d3d244dedb9f}, !- Default Construction Set Name
  ,                                       !- Default Schedule Set Name
  {11c5ba8e-d816-4a14-9815-8da5d03ef976}, !- Group Rendering Name
  {728df53c-71fd-4915-a328-20dc5391d21c}, !- Design Specification Outdoor Air Object Name
  PrimarySchool,                          !- Standards Building Type
  BlendOff;                               !- Standards Space Type

OS:Rendering:Color,
  {11c5ba8e-d816-4a14-9815-8da5d03ef976}, !- Handle
  Rendering Color 2,                      !- Name
  120,                                    !- Rendering Red Value
  230,                                    !- Rendering Green Value
  199;                                    !- Rendering Blue Value

OS:SpaceType,
  {c02d54b9-efd6-475c-94db-967554979594}, !- Handle
  PrimarySchool|Library|DOE Ref 1980-2004|ASHRAE 169-2006-5A, !- Name
  {6d26518a-477f-42b6-ae9b-d3d244dedb9f}, !- Default Construction Set Name
  {0affea26-8406-4b34-b31b-f6e2eca0cbbe}, !- Default Schedule Set Name
  {e83fea52-6581-4bb5-b872-478c20fa42ec}, !- Group Rendering Name
  {fbee80e9-9b8b-4ba7-8c31-1c2d6cb658cb}, !- Design Specification Outdoor Air Object Name
  PrimarySchool,                          !- Standards Building Type
  Library;                                !- Standards Space Type

OS:Rendering:Color,
  {e83fea52-6581-4bb5-b872-478c20fa42ec}, !- Handle
  Rendering Color 3,                      !- Name
  230,                                    !- Rendering Red Value
  196,                                    !- Rendering Green Value
  120;                                    !- Rendering Blue Value

OS:SpaceType,
  {fa2dfbb3-daf4-4e30-a2ee-1a4636fc73c1}, !- Handle
  PrimarySchool|Gym|DOE Ref 1980-2004|ASHRAE 169-2006-5A, !- Name
  {6d26518a-477f-42b6-ae9b-d3d244dedb9f}, !- Default Construction Set Name
  {f67afc30-e52c-4b1f-b6dc-a21c35202315}, !- Default Schedule Set Name
  {4913ca82-2e8b-4945-8f32-8b8137250e9e}, !- Group Rendering Name
  {5adf04cb-fcbf-4291-8be3-10ab82892e2f}, !- Design Specification Outdoor Air Object Name
  PrimarySchool,                          !- Standards Building Type
  Gym;                                    !- Standards Space Type

OS:Rendering:Color,
  {4913ca82-2e8b-4945-8f32-8b8137250e9e}, !- Handle
  Rendering Color 4,                      !- Name
  154,                                    !- Rendering Red Value
  230,                                    !- Rendering Green Value
  120;                                    !- Rendering Blue Value

OS:SpaceType,
  {994ac47a-6162-4162-b7e3-f4839f5afad3}, !- Handle
  PrimarySchool|Cafeteria|DOE Ref 1980-2004|ASHRAE 169-2006-5A, !- Name
  {6d26518a-477f-42b6-ae9b-d3d244dedb9f}, !- Default Construction Set Name
  {e14e9c12-c19d-40cb-bae5-6df2e08e5728}, !- Default Schedule Set Name
  {1ed3f6c9-993f-4a93-85a6-9ae112aa5ae4}, !- Group Rendering Name
  {4c66affd-f01f-4ca5-b034-5caee3682705}, !- Design Specification Outdoor Air Object Name
  PrimarySchool,                          !- Standards Building Type
  Cafeteria;                              !- Standards Space Type

OS:Rendering:Color,
  {1ed3f6c9-993f-4a93-85a6-9ae112aa5ae4}, !- Handle
  Rendering Color 5,                      !- Name
  31,                                     !- Rendering Red Value
  169,                                    !- Rendering Green Value
  34;                                     !- Rendering Blue Value

OS:SpaceType,
  {77009b4d-b41f-4646-811d-ccdf27fc70be}, !- Handle
  PrimarySchool|Kitchen|DOE Ref 1980-2004|ASHRAE 169-2006-5A, !- Name
  {6d26518a-477f-42b6-ae9b-d3d244dedb9f}, !- Default Construction Set Name
  {1320b373-ec31-4250-a333-290088a0bd38}, !- Default Schedule Set Name
  {6191cb14-c6d2-401c-84ae-dbb409e09011}, !- Group Rendering Name
  {634c0205-19f0-47ba-a8a9-c2e5f8c3e4b3}, !- Design Specification Outdoor Air Object Name
  PrimarySchool,                          !- Standards Building Type
  Kitchen;                                !- Standards Space Type

OS:Rendering:Color,
  {6191cb14-c6d2-401c-84ae-dbb409e09011}, !- Handle
  Rendering Color 6,                      !- Name
  78,                                     !- Rendering Red Value
  222,                                    !- Rendering Green Value
  133;                                    !- Rendering Blue Value

OS:Schedule:Ruleset,
  {cff4ca7d-f1d2-4adb-8659-ca0f71f2cf17}, !- Handle
  0800|1600|PrimarySchool|default|hoo,    !- Name
  {2357057e-336f-4338-bccc-098e5c36976c}, !- Schedule Type Limits Name
  {d8a0843b-5687-47ac-8ee8-183c77353f4a}, !- Default Day Schedule Name
  {4af7436d-4121-46c7-9a81-7f474c5d99a4}, !- Summer Design Day Schedule Name
  {9c4c882f-daff-4943-944a-9ac00df26425}; !- Winter Design Day Schedule Name

OS:Schedule:Day,
  {d8a0843b-5687-47ac-8ee8-183c77353f4a}, !- Handle
  0800|1600|PrimarySchool|default|hoo Schedule Week Day, !- Name
  {2357057e-336f-4338-bccc-098e5c36976c}, !- Schedule Type Limits Name
  ,                                       !- Interpolate to Timestep
  8,                                      !- Hour 1
  0,                                      !- Minute 1
  0,                                      !- Value Until Time 1
  16,                                     !- Hour 2
  0,                                      !- Minute 2
  1,                                      !- Value Until Time 2
  24,                                     !- Hour 3
  0,                                      !- Minute 3
  0;                                      !- Value Until Time 3

OS:Schedule:Day,
  {baf5701f-a021-4ba2-86fb-3c50b209acd4}, !- Handle
  Schedule Day 2,                         !- Name
  ,                                       !- Schedule Type Limits Name
  ,                                       !- Interpolate to Timestep
  24,                                     !- Hour 1
  0,                                      !- Minute 1
  0;                                      !- Value Until Time 1

OS:Schedule:Day,
  {9c4c882f-daff-4943-944a-9ac00df26425}, !- Handle
  0800|1600|PrimarySchool|default|hoo Winter Design Day, !- Name
  {2357057e-336f-4338-bccc-098e5c36976c}, !- Schedule Type Limits Name
  ,                                       !- Interpolate to Timestep
  24,                                     !- Hour 1
  0,                                      !- Minute 1
  0;                                      !- Value Until Time 1

OS:Schedule:Day,
  {0ddcc3b6-e0f1-4071-9bf1-917005ec42ff}, !- Handle
  Schedule Day 3,                         !- Name
  ,                                       !- Schedule Type Limits Name
  ,                                       !- Interpolate to Timestep
  24,                                     !- Hour 1
  0,                                      !- Minute 1
  0;                                      !- Value Until Time 1

OS:Schedule:Day,
  {4af7436d-4121-46c7-9a81-7f474c5d99a4}, !- Handle
  0800|1600|PrimarySchool|default|hoo Summer Design Day, !- Name
  {2357057e-336f-4338-bccc-098e5c36976c}, !- Schedule Type Limits Name
  ,                                       !- Interpolate to Timestep
  24,                                     !- Hour 1
  0,                                      !- Minute 1
  1;                                      !- Value Until Time 1

OS:DefaultScheduleSet,
  {905693c9-0481-4ff5-a82c-558765a601f4}, !- Handle
  Building Hours of Operation,            !- Name
  {cff4ca7d-f1d2-4adb-8659-ca0f71f2cf17}, !- Hours of Operation Schedule Name
  ,                                       !- Number of People Schedule Name
  ,                                       !- People Activity Level Schedule Name
  ,                                       !- Lighting Schedule Name
  ,                                       !- Electric Equipment Schedule Name
  ,                                       !- Gas Equipment Schedule Name
  ,                                       !- Hot Water Equipment Schedule Name
  ,                                       !- Infiltration Schedule Name
  ,                                       !- Steam Equipment Schedule Name
  ;                                       !- Other Equipment Schedule Name

OS:ScheduleTypeLimits,
  {2357057e-336f-4338-bccc-098e5c36976c}, !- Handle
  OnOff,                                  !- Name
  0,                                      !- Lower Limit Value {BasedOnField A4}
  1,                                      !- Upper Limit Value {BasedOnField A4}
  Discrete,                               !- Numeric Type
  Availability;                           !- Unit Type

OS:Schedule:Ruleset,
  {ea53298f-af0a-41a5-95ac-f8ef8b0ffccc}, !- Handle
  0800|1600|PrimarySchool|Mechanical|clg_setpoint, !- Name
  {9e2f39b4-1992-4c64-b910-cd1b9043208c}, !- Schedule Type Limits Name
  {f2f109c1-72a7-4543-b13c-ed6c6e43d10e}, !- Default Day Schedule Name
  {8b98ed12-0eda-4d34-b332-ddaa0f6d9934}, !- Summer Design Day Schedule Name
  {071249a2-2e79-48e7-b851-caf71c9fd0f8}; !- Winter Design Day Schedule Name

OS:ScheduleTypeLimits,
  {9e2f39b4-1992-4c64-b910-cd1b9043208c}, !- Handle
  Thermostat Cooling Setpoint Schedule Type Limits, !- Name
  0,                                      !- Lower Limit Value {BasedOnField A4}
  100,                                    !- Upper Limit Value {BasedOnField A4}
  Continuous,                             !- Numeric Type
  Temperature;                            !- Unit Type

OS:Schedule:Day,
  {f2f109c1-72a7-4543-b13c-ed6c6e43d10e}, !- Handle
  0800|1600|PrimarySchool|Mechanical|clg_setpoint |default, !- Name
  {9e2f39b4-1992-4c64-b910-cd1b9043208c}, !- Schedule Type Limits Name
  ,                                       !- Interpolate to Timestep
  24,                                     !- Hour 1
  0,                                      !- Minute 1
  27.0000000000001;                       !- Value Until Time 1

OS:Schedule:Day,
  {8b98ed12-0eda-4d34-b332-ddaa0f6d9934}, !- Handle
  0800|1600|PrimarySchool|Mechanical|clg_setpoint Summer Design Day, !- Name
  {9e2f39b4-1992-4c64-b910-cd1b9043208c}, !- Schedule Type Limits Name
  ,                                       !- Interpolate to Timestep
  24,                                     !- Hour 1
  0,                                      !- Minute 1
  27.0000000000001;                       !- Value Until Time 1

OS:Schedule:Day,
  {071249a2-2e79-48e7-b851-caf71c9fd0f8}, !- Handle
  0800|1600|PrimarySchool|Mechanical|clg_setpoint Winter Design Day, !- Name
  {9e2f39b4-1992-4c64-b910-cd1b9043208c}, !- Schedule Type Limits Name
  ,                                       !- Interpolate to Timestep
  24,                                     !- Hour 1
  0,                                      !- Minute 1
  27.0000000000001;                       !- Value Until Time 1

OS:Schedule:Ruleset,
  {9735898f-dd27-4f90-bbdd-49a5e10ab18f}, !- Handle
  0800|1600|PrimarySchool|default|work_eff, !- Name
  {ea0620fb-4611-44d5-b5f4-571bbb9cbf6a}, !- Schedule Type Limits Name
  {c1e5e038-3187-46dc-8816-bc87b1fc3028}, !- Default Day Schedule Name
  {6f7ffebf-f465-4039-ac5e-1cb96de2020b}, !- Summer Design Day Schedule Name
  {a98a818b-b6f4-4d49-b9b0-d6da0bdc17c8}; !- Winter Design Day Schedule Name

OS:ScheduleTypeLimits,
  {ea0620fb-4611-44d5-b5f4-571bbb9cbf6a}, !- Handle
  Fraction Schedule Type Limits,          !- Name
  0,                                      !- Lower Limit Value {BasedOnField A4}
  1,                                      !- Upper Limit Value {BasedOnField A4}
  Continuous,                             !- Numeric Type
  Dimensionless;                          !- Unit Type

OS:Schedule:Day,
  {c1e5e038-3187-46dc-8816-bc87b1fc3028}, !- Handle
  0800|1600|PrimarySchool|default|work_eff |default, !- Name
  {ea0620fb-4611-44d5-b5f4-571bbb9cbf6a}, !- Schedule Type Limits Name
  ,                                       !- Interpolate to Timestep
  24,                                     !- Hour 1
  0,                                      !- Minute 1
  0;                                      !- Value Until Time 1

OS:Schedule:Day,
  {6f7ffebf-f465-4039-ac5e-1cb96de2020b}, !- Handle
  0800|1600|PrimarySchool|default|work_eff Summer Design Day, !- Name
  {ea0620fb-4611-44d5-b5f4-571bbb9cbf6a}, !- Schedule Type Limits Name
  ,                                       !- Interpolate to Timestep
  24,                                     !- Hour 1
  0,                                      !- Minute 1
  0;                                      !- Value Until Time 1

OS:Schedule:Day,
  {a98a818b-b6f4-4d49-b9b0-d6da0bdc17c8}, !- Handle
  0800|1600|PrimarySchool|default|work_eff Winter Design Day, !- Name
  {ea0620fb-4611-44d5-b5f4-571bbb9cbf6a}, !- Schedule Type Limits Name
  ,                                       !- Interpolate to Timestep
  24,                                     !- Hour 1
  0,                                      !- Minute 1
  0;                                      !- Value Until Time 1

OS:Schedule:Ruleset,
  {83a16f1a-5428-4205-af95-cb3fbcea2ee0}, !- Handle
  0800|1600|PrimarySchool|Cafeteria|occ,  !- Name
  {60e07170-e373-47f8-83dd-f0fd235fa447}, !- Schedule Type Limits Name
  {a199e618-1b8e-45c2-b5c8-baa7a240c3f5}, !- Default Day Schedule Name
  {af5ca942-cec5-443e-ad06-165e4d49d9f2}, !- Summer Design Day Schedule Name
  {30f317f2-e5de-4bb7-b965-6e3c4ff64cc3}; !- Winter Design Day Schedule Name

OS:ScheduleTypeLimits,
  {60e07170-e373-47f8-83dd-f0fd235fa447}, !- Handle
  Occupancy Schedule Type Limits,         !- Name
  0,                                      !- Lower Limit Value {BasedOnField A4}
  1,                                      !- Upper Limit Value {BasedOnField A4}
  Continuous,                             !- Numeric Type
  Dimensionless;                          !- Unit Type

OS:Schedule:Day,
  {a199e618-1b8e-45c2-b5c8-baa7a240c3f5}, !- Handle
  0800|1600|PrimarySchool|Cafeteria|occ |default, !- Name
  {60e07170-e373-47f8-83dd-f0fd235fa447}, !- Schedule Type Limits Name
  ,                                       !- Interpolate to Timestep
  7,                                      !- Hour 1
  0,                                      !- Minute 1
  0,                                      !- Value Until Time 1
  9,                                      !- Hour 2
  0,                                      !- Minute 2
  0.15,                                   !- Value Until Time 2
  11,                                     !- Hour 3
  0,                                      !- Minute 3
  0.05,                                   !- Value Until Time 3
  13,                                     !- Hour 4
  0,                                      !- Minute 4
  0.95,                                   !- Value Until Time 4
  15,                                     !- Hour 5
  0,                                      !- Minute 5
  0.15,                                   !- Value Until Time 5
  24,                                     !- Hour 6
  0,                                      !- Minute 6
  0;                                      !- Value Until Time 6

OS:Schedule:Day,
  {af5ca942-cec5-443e-ad06-165e4d49d9f2}, !- Handle
  0800|1600|PrimarySchool|Cafeteria|occ Summer Design Day, !- Name
  {60e07170-e373-47f8-83dd-f0fd235fa447}, !- Schedule Type Limits Name
  ,                                       !- Interpolate to Timestep
  7,                                      !- Hour 1
  0,                                      !- Minute 1
  0,                                      !- Value Until Time 1
  9,                                      !- Hour 2
  0,                                      !- Minute 2
  0.15,                                   !- Value Until Time 2
  11,                                     !- Hour 3
  0,                                      !- Minute 3
  0.05,                                   !- Value Until Time 3
  13,                                     !- Hour 4
  0,                                      !- Minute 4
  1,                                      !- Value Until Time 4
  15,                                     !- Hour 5
  0,                                      !- Minute 5
  0.15,                                   !- Value Until Time 5
  24,                                     !- Hour 6
  0,                                      !- Minute 6
  0;                                      !- Value Until Time 6

OS:Schedule:Day,
  {30f317f2-e5de-4bb7-b965-6e3c4ff64cc3}, !- Handle
  0800|1600|PrimarySchool|Cafeteria|occ Winter Design Day, !- Name
  {60e07170-e373-47f8-83dd-f0fd235fa447}, !- Schedule Type Limits Name
  ,                                       !- Interpolate to Timestep
  24,                                     !- Hour 1
  0,                                      !- Minute 1
  0;                                      !- Value Until Time 1

OS:Schedule:Rule,
  {e8090b16-ef26-41f9-b735-0244f4caa388}, !- Handle
  0800|1600|PrimarySchool|Cafeteria|occ |1/1-6/30|Sat/Sun Rule, !- Name
  {83a16f1a-5428-4205-af95-cb3fbcea2ee0}, !- Schedule Ruleset Name
  0,                                      !- Rule Order
  {251dd417-2616-4256-9be2-9be3f64fd79d}, !- Day Schedule Name
  Yes,                                    !- Apply Sunday
  ,                                       !- Apply Monday
  ,                                       !- Apply Tuesday
  ,                                       !- Apply Wednesday
  ,                                       !- Apply Thursday
  ,                                       !- Apply Friday
  Yes,                                    !- Apply Saturday
  ,                                       !- Apply Holiday
  DateRange,                              !- Date Specification Type
  1,                                      !- Start Month
  1,                                      !- Start Day
  6,                                      !- End Month
  30;                                     !- End Day

OS:Schedule:Day,
  {251dd417-2616-4256-9be2-9be3f64fd79d}, !- Handle
  0800|1600|PrimarySchool|Cafeteria|occ |1/1-6/30|Sat/Sun, !- Name
  {60e07170-e373-47f8-83dd-f0fd235fa447}, !- Schedule Type Limits Name
  ,                                       !- Interpolate to Timestep
  24,                                     !- Hour 1
  0,                                      !- Minute 1
  0;                                      !- Value Until Time 1

OS:Schedule:Rule,
  {29d20091-6ff7-4eb0-a8d2-9fd40e7f7843}, !- Handle
  0800|1600|PrimarySchool|Cafeteria|occ |7/1-9/1|Mon/Tue/Wed/Thu/Fri/Sat/Sun Rule, !- Name
  {83a16f1a-5428-4205-af95-cb3fbcea2ee0}, !- Schedule Ruleset Name
  1,                                      !- Rule Order
  {670fc173-b15b-4266-bb55-cbf45b91666d}, !- Day Schedule Name
  Yes,                                    !- Apply Sunday
  Yes,                                    !- Apply Monday
  Yes,                                    !- Apply Tuesday
  Yes,                                    !- Apply Wednesday
  Yes,                                    !- Apply Thursday
  Yes,                                    !- Apply Friday
  Yes,                                    !- Apply Saturday
  ,                                       !- Apply Holiday
  DateRange,                              !- Date Specification Type
  7,                                      !- Start Month
  1,                                      !- Start Day
  9,                                      !- End Month
  1;                                      !- End Day

OS:Schedule:Day,
  {670fc173-b15b-4266-bb55-cbf45b91666d}, !- Handle
  0800|1600|PrimarySchool|Cafeteria|occ |7/1-9/1|Mon/Tue/Wed/Thu/Fri/Sat/Sun, !- Name
  {60e07170-e373-47f8-83dd-f0fd235fa447}, !- Schedule Type Limits Name
  ,                                       !- Interpolate to Timestep
  9,                                      !- Hour 1
  0,                                      !- Minute 1
  0,                                      !- Value Until Time 1
  15,                                     !- Hour 2
  0,                                      !- Minute 2
  0.25,                                   !- Value Until Time 2
  24,                                     !- Hour 3
  0,                                      !- Minute 3
  0;                                      !- Value Until Time 3

OS:Schedule:Rule,
  {1e6a1946-8ae1-4bb6-9c76-a1a9bd56abd5}, !- Handle
  0800|1600|PrimarySchool|Cafeteria|occ |7/1-9/1|Sat/Sun Rule, !- Name
  {83a16f1a-5428-4205-af95-cb3fbcea2ee0}, !- Schedule Ruleset Name
  2,                                      !- Rule Order
  {f24b08d5-874c-40af-a7bf-ffa7ea022eb2}, !- Day Schedule Name
  Yes,                                    !- Apply Sunday
  ,                                       !- Apply Monday
  ,                                       !- Apply Tuesday
  ,                                       !- Apply Wednesday
  ,                                       !- Apply Thursday
  ,                                       !- Apply Friday
  Yes,                                    !- Apply Saturday
  ,                                       !- Apply Holiday
  DateRange,                              !- Date Specification Type
  7,                                      !- Start Month
  1,                                      !- Start Day
  9,                                      !- End Month
  1;                                      !- End Day

OS:Schedule:Day,
  {f24b08d5-874c-40af-a7bf-ffa7ea022eb2}, !- Handle
  0800|1600|PrimarySchool|Cafeteria|occ |7/1-9/1|Sat/Sun, !- Name
  {60e07170-e373-47f8-83dd-f0fd235fa447}, !- Schedule Type Limits Name
  ,                                       !- Interpolate to Timestep