
OS:Version,
  {b225d2c6-dab5-4c64-ac58-76348c1844e0}, !- Handle
  1.6.0;                                  !- Version Identifier

OS:ClimateZones,
  {135edfab-17e7-40db-a436-27d385a8cd6d}, !- Handle
  ,                                       !- Active Institution
  ,                                       !- Active Year
  ASHRAE,                                 !- Climate Zone Institution Name 1
  ANSI/ASHRAE Standard 169,               !- Climate Zone Document Name 1
  2006,                                   !- Climate Zone Document Year 1
  ,                                       !- Climate Zone Value 1
  CEC,                                    !- Climate Zone Institution Name 2
  California Climate Zone Descriptions,   !- Climate Zone Document Name 2
  1995,                                   !- Climate Zone Document Year 2
  ;                                       !- Climate Zone Value 2

OS:YearDescription,
  {513d8dda-86cb-442a-b01c-1f7f0e0ac70e}; !- Handle

OS:RadianceParameters,
  {270a96f1-3c86-4b75-a667-cdf22790e2c8}, !- Handle
  1,                                      !- Accumulated Rays per Record
  0,                                      !- Direct Threshold
  1,                                      !- Direct Certainty
  1,                                      !- Direct Jitter
  1,                                      !- Direct Pretest
  6,                                      !- Ambient Bounces VMX
  2,                                      !- Ambient Bounces DMX
  4050,                                   !- Ambient Divisions VMX
  512,                                    !- Ambient Divisions DMX
  256,                                    !- Ambient Supersamples
  0.001,                                  !- Limit Weight VMX
  0.001,                                  !- Limit Weight DMX
  500,                                    !- Klems Sampling Density
  146;                                    !- Sky Discretization Resolution

OS:SimulationControl,
  {2c487a4c-bac9-4ac5-b669-1e49d9da7c2b}, !- Handle
  ,                                       !- Do Zone Sizing Calculation
  ,                                       !- Do System Sizing Calculation
  ,                                       !- Do Plant Sizing Calculation
  No,                                     !- Run Simulation for Sizing Periods
  ,                                       !- Run Simulation for Weather File Run Periods
  0.04,                                   !- Loads Convergence Tolerance Value
  ,                                       !- Temperature Convergence Tolerance Value {deltaC}
  ,                                       !- Solar Distribution
  ,                                       !- Maximum Number of Warmup Days
  2;                                      !- Minimum Number of Warmup Days

OS:Sizing:Parameters,
  {dde5af6f-7923-4600-a28a-7556673a0266}, !- Handle
  1.25,                                   !- Heating Sizing Factor
  1.15;                                   !- Cooling Sizing Factor

OS:ProgramControl,
  {05027a99-f2b3-4aeb-afc6-1425fbb4371d}; !- Handle

OS:Timestep,
  {4ebc9f1e-4707-402e-9844-67eb1ffbd522}, !- Handle
  2;                                      !- Number of Timesteps per Hour

OS:OutputControl:ReportingTolerances,
  {65797aa2-06a9-45fe-b69d-bc6e060399d3}; !- Handle

OS:ConvergenceLimits,
  {9fc11aba-8822-4f3d-970c-46391ba4040d}; !- Handle

OS:ShadowCalculation,
  {ca758bea-4416-4626-9bba-3d8795c79bd6}, !- Handle
  7,                                      !- Calculation Frequency
  15000;                                  !- Maximum Figures in Shadow Overlap Calculations

OS:SurfaceConvectionAlgorithm:Inside,
  {aaabfc36-718a-4ab0-b622-f186ebb45230}, !- Handle
  TARP;                                   !- Algorithm

OS:SurfaceConvectionAlgorithm:Outside,
  {9a0a9f6f-4bbd-4b12-a121-9492a1fcd7d6}, !- Handle
  DOE-2;                                  !- Algorithm

OS:HeatBalanceAlgorithm,
  {9d93e563-e1e0-46d7-9e39-d1c8aceb7212}, !- Handle
  ConductionTransferFunction,             !- Algorithm
  200;                                    !- Surface Temperature Upper Limit {F}

OS:ZoneAirHeatBalanceAlgorithm,
  {8520d93e-310f-4696-9bcd-36228bfdd743}, !- Handle
  AnalyticalSolution;                     !- Algorithm

OS:ZoneAirContaminantBalance,
  {eb5fc3ae-fb22-4160-8fcb-3e3b22b000d3}; !- Handle

OS:ZoneCapacitanceMultiplier:ResearchSpecial,
  {4020ce4f-5a7a-4849-8028-8305d7b751b1}, !- Handle
  ,                                       !- Temperature Capacity Multiplier
  ,                                       !- Humidity Capacity Multiplier
  ;                                       !- Carbon Dioxide Capacity Multiplier

OS:RunPeriod,
  {28df894d-6af9-4fb8-8f56-df1753344aa3}, !- Handle
  Run Period 1,                           !- Name
  1,                                      !- Begin Month
  1,                                      !- Begin Day of Month
  12,                                     !- End Month
  31,                                     !- End Day of Month
  ,                                       !- Use Weather File Holidays and Special Days
  ,                                       !- Use Weather File Daylight Saving Period
  ,                                       !- Apply Weekend Holiday Rule
  ,                                       !- Use Weather File Rain Indicators
  ,                                       !- Use Weather File Snow Indicators
  ;                                       !- Number of Times Runperiod to be Repeated

OS:Building,
  {bf305633-c5a1-4881-9edf-ca5e1a8e1274}, !- Handle
  Building 1,                             !- Name
  ,                                       !- Building Sector Type
  ,                                       !- North Axis {deg}
  ,                                       !- Nominal Floor to Floor Height {m}
  ,                                       !- Space Type Name
  ,                                       !- Default Construction Set Name
  {c4fcbc33-5090-4db8-8b50-368d7564dd8c}, !- Default Schedule Set Name
  ,                                       !- Standards Number of Stories
  ,                                       !- Standards Number of Above Ground Stories
  PrimarySchool;                          !- Standards Building Type

OS:LifeCycleCost:Parameters,
  {231cf8a0-f0e7-4251-a99f-11f0d464e661}, !- Handle
  FEMP,                                   !- Analysis Type
  ,                                       !- Discounting Convention
  ,                                       !- Inflation Approach
  ,                                       !- Real Discount Rate
  ,                                       !- Nominal Discount Rate
  ,                                       !- Inflation
  ,                                       !- Base Date Month
  ,                                       !- Base Date Year
  ,                                       !- Service Date Month
  ,                                       !- Service Date Year
  ,                                       !- Length of Study Period in Years
  ,                                       !- Tax Rate
  ,                                       !- Depreciation Method
  Yes;                                    !- Use NIST Fuel Escalation Rates

OS:Facility,
  {3ba8e45b-b833-44eb-a723-ea6c3946dc96}; !- Handle

OS:SpaceType,
  {e0621026-fd60-4364-8654-583832988265}, !- Handle
  PrimarySchool|BlendEdu|DOE Ref Pre-1980|ASHRAE 169-2006-5A, !- Name
  {1ae3cf47-3468-45ca-8bdd-94f0d6c8865a}, !- Default Construction Set Name
  ,                                       !- Default Schedule Set Name
  {cbaf2222-a3f4-430e-902c-339223725a4a}, !- Group Rendering Name
  {e5bc7bba-2e3e-428c-a619-43b97db6e7f6}, !- Design Specification Outdoor Air Object Name
  PrimarySchool,                          !- Standards Building Type
  BlendEdu;                               !- Standards Space Type

OS:Rendering:Color,
  {cbaf2222-a3f4-430e-902c-339223725a4a}, !- Handle
  Rendering Color 1,                      !- Name
  120,                                    !- Rendering Red Value
  230,                                    !- Rendering Green Value
  199;                                    !- Rendering Blue Value

OS:SpaceType,
  {66b5c509-3d32-4b85-a9ff-652d900ec1d5}, !- Handle
  PrimarySchool|BlendOff|DOE Ref Pre-1980|ASHRAE 169-2006-5A, !- Name
  {1ae3cf47-3468-45ca-8bdd-94f0d6c8865a}, !- Default Construction Set Name
  ,                                       !- Default Schedule Set Name
  {5143b996-6e3f-46e7-909e-9330b1f67cdb}, !- Group Rendering Name
  {cf6e8794-4bfd-484b-8930-fc582bfdb113}, !- Design Specification Outdoor Air Object Name
  PrimarySchool,                          !- Standards Building Type
  BlendOff;                               !- Standards Space Type

OS:Rendering:Color,
  {5143b996-6e3f-46e7-909e-9330b1f67cdb}, !- Handle
  Rendering Color 2,                      !- Name
  120,                                    !- Rendering Red Value
  230,                                    !- Rendering Green Value
  199;                                    !- Rendering Blue Value

OS:SpaceType,
  {43e98242-53cf-45ef-850e-4060f03c73da}, !- Handle
  PrimarySchool|Library|DOE Ref Pre-1980|ASHRAE 169-2006-5A, !- Name
  {1ae3cf47-3468-45ca-8bdd-94f0d6c8865a}, !- Default Construction Set Name
  {81fa2912-8902-4079-876c-772f8d2868c2}, !- Default Schedule Set Name
  {126601b7-e542-4448-9755-2575747b0e2d}, !- Group Rendering Name
  {7d2a335f-b62d-49bd-8707-72d525bdd292}, !- Design Specification Outdoor Air Object Name
  PrimarySchool,                          !- Standards Building Type
  Library;                                !- Standards Space Type

OS:Rendering:Color,
  {126601b7-e542-4448-9755-2575747b0e2d}, !- Handle
  Rendering Color 3,                      !- Name
  230,                                    !- Rendering Red Value
  196,                                    !- Rendering Green Value
  120;                                    !- Rendering Blue Value

OS:SpaceType,
  {36170fb0-dfe8-46f3-a340-367ea3f216eb}, !- Handle
  PrimarySchool|Gym|DOE Ref Pre-1980|ASHRAE 169-2006-5A, !- Name
  {1ae3cf47-3468-45ca-8bdd-94f0d6c8865a}, !- Default Construction Set Name
  {8071d56e-cdc2-4619-bca2-aec241760e74}, !- Default Schedule Set Name
  {c49f6e8f-0fd6-45b0-acac-5048c974cc4a}, !- Group Rendering Name
  {a775fa55-0503-4a81-b22a-ff7204f1fe79}, !- Design Specification Outdoor Air Object Name
  PrimarySchool,                          !- Standards Building Type
  Gym;                                    !- Standards Space Type

OS:Rendering:Color,
  {c49f6e8f-0fd6-45b0-acac-5048c974cc4a}, !- Handle
  Rendering Color 4,                      !- Name
  154,                                    !- Rendering Red Value
  230,                                    !- Rendering Green Value
  120;                                    !- Rendering Blue Value

OS:SpaceType,
  {0792f8db-ed23-4848-91eb-62426ffd6082}, !- Handle
  PrimarySchool|Cafeteria|DOE Ref Pre-1980|ASHRAE 169-2006-5A, !- Name
  {1ae3cf47-3468-45ca-8bdd-94f0d6c8865a}, !- Default Construction Set Name
  {28c49814-3885-4418-9217-b15d73c808b2}, !- Default Schedule Set Name
  {b93c6e83-44a9-486f-8072-eb76990892b4}, !- Group Rendering Name
  {b0ebfe96-67d4-40fe-9676-9baf7659ddc5}, !- Design Specification Outdoor Air Object Name
  PrimarySchool,                          !- Standards Building Type
  Cafeteria;                              !- Standards Space Type

OS:Rendering:Color,
  {b93c6e83-44a9-486f-8072-eb76990892b4}, !- Handle
  Rendering Color 5,                      !- Name
  31,                                     !- Rendering Red Value
  169,                                    !- Rendering Green Value
  34;                                     !- Rendering Blue Value

OS:SpaceType,
  {99f48868-fd9c-4881-8d56-919e4850c53f}, !- Handle
  PrimarySchool|Kitchen|DOE Ref Pre-1980|ASHRAE 169-2006-5A, !- Name
  {1ae3cf47-3468-45ca-8bdd-94f0d6c8865a}, !- Default Construction Set Name
  {8a874a4f-1437-464f-bf7c-5ab4ea65ae88}, !- Default Schedule Set Name
  {1939d4a6-cd46-4414-9d3d-594706391568}, !- Group Rendering Name
  {8e4f1427-e7a1-4ab0-a072-6716125c8127}, !- Design Specification Outdoor Air Object Name
  PrimarySchool,                          !- Standards Building Type
  Kitchen;                                !- Standards Space Type

OS:Rendering:Color,
  {1939d4a6-cd46-4414-9d3d-594706391568}, !- Handle
  Rendering Color 6,                      !- Name
  78,                                     !- Rendering Red Value
  222,                                    !- Rendering Green Value
  133;                                    !- Rendering Blue Value

OS:Schedule:Ruleset,
  {1a4422c7-85c3-4523-a5e6-635ae1329e45}, !- Handle
  0800|1600|PrimarySchool|default|hoo,    !- Name
  {48301db5-b839-4abd-a2b5-c3188274ae3b}, !- Schedule Type Limits Name
  {dcf18395-b7a5-4d7c-b734-da30f039a8cc}, !- Default Day Schedule Name
  {28b5dc8f-ad31-4cba-81f7-2fc0a25ccfd8}, !- Summer Design Day Schedule Name
  {c9de81c2-789f-4923-bc8c-dbc35432265e}; !- Winter Design Day Schedule Name

OS:Schedule:Day,
  {dcf18395-b7a5-4d7c-b734-da30f039a8cc}, !- Handle
  0800|1600|PrimarySchool|default|hoo Schedule Week Day, !- Name
  {48301db5-b839-4abd-a2b5-c3188274ae3b}, !- Schedule Type Limits Name
  ,                                       !- Interpolate to Timestep
  8,                                      !- Hour 1
  0,                                      !- Minute 1
  0,                                      !- Value Until Time 1
  16,                                     !- Hour 2
  0,                                      !- Minute 2
  1,                                      !- Value Until Time 2
  24,                                     !- Hour 3
  0,                                      !- Minute 3
  0;                                      !- Value Until Time 3

OS:Schedule:Day,
  {e07c5b96-3e14-4244-a317-fb4ff622e9f6}, !- Handle
  Schedule Day 2,                         !- Name
  ,                                       !- Schedule Type Limits Name
  ,                                       !- Interpolate to Timestep
  24,                                     !- Hour 1
  0,                                      !- Minute 1
  0;                                      !- Value Until Time 1

OS:Schedule:Day,
  {c9de81c2-789f-4923-bc8c-dbc35432265e}, !- Handle
  0800|1600|PrimarySchool|default|hoo Winter Design Day, !- Name
  {48301db5-b839-4abd-a2b5-c3188274ae3b}, !- Schedule Type Limits Name
  ,                                       !- Interpolate to Timestep
  24,                                     !- Hour 1
  0,                                      !- Minute 1
  0;                                      !- Value Until Time 1

OS:Schedule:Day,
  {f2cc778d-2f00-4f72-9389-9222e9351769}, !- Handle
  Schedule Day 3,                         !- Name
  ,                                       !- Schedule Type Limits Name
  ,                                       !- Interpolate to Timestep
  24,                                     !- Hour 1
  0,                                      !- Minute 1
  0;                                      !- Value Until Time 1

OS:Schedule:Day,
  {28b5dc8f-ad31-4cba-81f7-2fc0a25ccfd8}, !- Handle
  0800|1600|PrimarySchool|default|hoo Summer Design Day, !- Name
  {48301db5-b839-4abd-a2b5-c3188274ae3b}, !- Schedule Type Limits Name
  ,                                       !- Interpolate to Timestep
  24,                                     !- Hour 1
  0,                                      !- Minute 1
  1;                                      !- Value Until Time 1

OS:DefaultScheduleSet,
  {c4fcbc33-5090-4db8-8b50-368d7564dd8c}, !- Handle
  Building Hours of Operation,            !- Name
  {1a4422c7-85c3-4523-a5e6-635ae1329e45}, !- Hours of Operation Schedule Name
  ,                                       !- Number of People Schedule Name
  ,                                       !- People Activity Level Schedule Name
  ,                                       !- Lighting Schedule Name
  ,                                       !- Electric Equipment Schedule Name
  ,                                       !- Gas Equipment Schedule Name
  ,                                       !- Hot Water Equipment Schedule Name
  ,                                       !- Infiltration Schedule Name
  ,                                       !- Steam Equipment Schedule Name
  ;                                       !- Other Equipment Schedule Name

OS:ScheduleTypeLimits,
  {48301db5-b839-4abd-a2b5-c3188274ae3b}, !- Handle
  OnOff,                                  !- Name
  0,                                      !- Lower Limit Value {BasedOnField A4}
  1,                                      !- Upper Limit Value {BasedOnField A4}
  Discrete,                               !- Numeric Type
  Availability;                           !- Unit Type

OS:Schedule:Ruleset,
  {52134bd0-3e07-40a5-8525-12603c4f632e}, !- Handle
  0800|1600|PrimarySchool|Mechanical|clg_setpoint, !- Name
  {9a0c53e1-c5a1-4a55-b758-f88b3aa48c63}, !- Schedule Type Limits Name
  {3faa2351-bac2-476f-bb70-7fcbf87351f9}, !- Default Day Schedule Name
  {d5e75138-e240-465f-aab7-018da68177c3}, !- Summer Design Day Schedule Name
  {137015b7-804f-43fc-8d36-03a589bbccb4}; !- Winter Design Day Schedule Name

OS:ScheduleTypeLimits,
  {9a0c53e1-c5a1-4a55-b758-f88b3aa48c63}, !- Handle
  Thermostat Cooling Setpoint Schedule Type Limits, !- Name
  0,                                      !- Lower Limit Value {BasedOnField A4}
  100,                                    !- Upper Limit Value {BasedOnField A4}
  Continuous,                             !- Numeric Type
  Temperature;                            !- Unit Type

OS:Schedule:Day,
  {3faa2351-bac2-476f-bb70-7fcbf87351f9}, !- Handle
  0800|1600|PrimarySchool|Mechanical|clg_setpoint |default, !- Name
  {9a0c53e1-c5a1-4a55-b758-f88b3aa48c63}, !- Schedule Type Limits Name
  ,                                       !- Interpolate to Timestep
  24,                                     !- Hour 1
  0,                                      !- Minute 1
  27.0000000000001;                       !- Value Until Time 1

OS:Schedule:Day,
  {d5e75138-e240-465f-aab7-018da68177c3}, !- Handle
  0800|1600|PrimarySchool|Mechanical|clg_setpoint Summer Design Day, !- Name
  {9a0c53e1-c5a1-4a55-b758-f88b3aa48c63}, !- Schedule Type Limits Name
  ,                                       !- Interpolate to Timestep
  24,                                     !- Hour 1
  0,                                      !- Minute 1
  27.0000000000001;                       !- Value Until Time 1

OS:Schedule:Day,
  {137015b7-804f-43fc-8d36-03a589bbccb4}, !- Handle
  0800|1600|PrimarySchool|Mechanical|clg_setpoint Winter Design Day, !- Name
  {9a0c53e1-c5a1-4a55-b758-f88b3aa48c63}, !- Schedule Type Limits Name
  ,                                       !- Interpolate to Timestep
  24,                                     !- Hour 1
  0,                                      !- Minute 1
  27.0000000000001;                       !- Value Until Time 1

OS:Schedule:Ruleset,
  {bb3b0fe9-fd45-426a-a566-1def817f56bb}, !- Handle
  0800|1600|PrimarySchool|default|work_eff, !- Name
  {0560c587-ebc1-4a22-ad8f-f9495389cb78}, !- Schedule Type Limits Name
  {0fb8399a-7428-4e29-b682-c22f1553b4fb}, !- Default Day Schedule Name
  {615d8e89-b021-4ff1-9a8a-761989ea2a9f}, !- Summer Design Day Schedule Name
  {5ace96c7-946c-4c92-a5a8-f04bb2bc063c}; !- Winter Design Day Schedule Name

OS:ScheduleTypeLimits,
  {0560c587-ebc1-4a22-ad8f-f9495389cb78}, !- Handle
  Fraction Schedule Type Limits,          !- Name
  0,                                      !- Lower Limit Value {BasedOnField A4}
  1,                                      !- Upper Limit Value {BasedOnField A4}
  Continuous,                             !- Numeric Type
  Dimensionless;                          !- Unit Type

OS:Schedule:Day,
  {0fb8399a-7428-4e29-b682-c22f1553b4fb}, !- Handle
  0800|1600|PrimarySchool|default|work_eff |default, !- Name
  {0560c587-ebc1-4a22-ad8f-f9495389cb78}, !- Schedule Type Limits Name
  ,                                       !- Interpolate to Timestep
  24,                                     !- Hour 1
  0,                                      !- Minute 1
  0;                                      !- Value Until Time 1

OS:Schedule:Day,
  {615d8e89-b021-4ff1-9a8a-761989ea2a9f}, !- Handle
  0800|1600|PrimarySchool|default|work_eff Summer Design Day, !- Name
  {0560c587-ebc1-4a22-ad8f-f9495389cb78}, !- Schedule Type Limits Name
  ,                                       !- Interpolate to Timestep
  24,                                     !- Hour 1
  0,                                      !- Minute 1
  0;                                      !- Value Until Time 1

OS:Schedule:Day,
  {5ace96c7-946c-4c92-a5a8-f04bb2bc063c}, !- Handle
  0800|1600|PrimarySchool|default|work_eff Winter Design Day, !- Name
  {0560c587-ebc1-4a22-ad8f-f9495389cb78}, !- Schedule Type Limits Name
  ,                                       !- Interpolate to Timestep
  24,                                     !- Hour 1
  0,                                      !- Minute 1
  0;                                      !- Value Until Time 1

OS:Schedule:Ruleset,
  {8ec124ce-47d4-4d0f-a55f-f66ed102dd75}, !- Handle
  0800|1600|PrimarySchool|Cafeteria|occ,  !- Name
  {ff7f59f9-e299-4c63-b189-0facd67c5260}, !- Schedule Type Limits Name
  {4c64a5d8-2f2a-4110-8a8e-6a8e91ba41db}, !- Default Day Schedule Name
  {1125c827-8458-4d44-bf7a-30cc45e3e4c2}, !- Summer Design Day Schedule Name
  {5403c53d-b23d-4601-baa7-ddac40186117}; !- Winter Design Day Schedule Name

OS:ScheduleTypeLimits,
  {ff7f59f9-e299-4c63-b189-0facd67c5260}, !- Handle
  Occupancy Schedule Type Limits,         !- Name
  0,                                      !- Lower Limit Value {BasedOnField A4}
  1,                                      !- Upper Limit Value {BasedOnField A4}
  Continuous,                             !- Numeric Type
  Dimensionless;                          !- Unit Type

OS:Schedule:Day,
  {4c64a5d8-2f2a-4110-8a8e-6a8e91ba41db}, !- Handle
  0800|1600|PrimarySchool|Cafeteria|occ |default, !- Name
  {ff7f59f9-e299-4c63-b189-0facd67c5260}, !- Schedule Type Limits Name
  ,                                       !- Interpolate to Timestep
  7,                                      !- Hour 1
  0,                                      !- Minute 1
  0,                                      !- Value Until Time 1
  9,                                      !- Hour 2
  0,                                      !- Minute 2
  0.15,                                   !- Value Until Time 2
  11,                                     !- Hour 3
  0,                                      !- Minute 3
  0.05,                                   !- Value Until Time 3
  13,                                     !- Hour 4
  0,                                      !- Minute 4
  0.95,                                   !- Value Until Time 4
  15,                                     !- Hour 5
  0,                                      !- Minute 5
  0.15,                                   !- Value Until Time 5
  24,                                     !- Hour 6
  0,                                      !- Minute 6
  0;                                      !- Value Until Time 6

OS:Schedule:Day,
  {1125c827-8458-4d44-bf7a-30cc45e3e4c2}, !- Handle
  0800|1600|PrimarySchool|Cafeteria|occ Summer Design Day, !- Name
  {ff7f59f9-e299-4c63-b189-0facd67c5260}, !- Schedule Type Limits Name
  ,                                       !- Interpolate to Timestep
  7,                                      !- Hour 1
  0,                                      !- Minute 1
  0,                                      !- Value Until Time 1
  9,                                      !- Hour 2
  0,                                      !- Minute 2
  0.15,                                   !- Value Until Time 2
  11,                                     !- Hour 3
  0,                                      !- Minute 3
  0.05,                                   !- Value Until Time 3
  13,                                     !- Hour 4
  0,                                      !- Minute 4
  1,                                      !- Value Until Time 4
  15,                                     !- Hour 5
  0,                                      !- Minute 5
  0.15,                                   !- Value Until Time 5
  24,                                     !- Hour 6
  0,                                      !- Minute 6
  0;                                      !- Value Until Time 6

OS:Schedule:Day,
  {5403c53d-b23d-4601-baa7-ddac40186117}, !- Handle
  0800|1600|PrimarySchool|Cafeteria|occ Winter Design Day, !- Name
  {ff7f59f9-e299-4c63-b189-0facd67c5260}, !- Schedule Type Limits Name
  ,                                       !- Interpolate to Timestep
  24,                                     !- Hour 1
  0,                                      !- Minute 1
  0;                                      !- Value Until Time 1

OS:Schedule:Rule,
  {3dce5af8-8899-41be-bd34-2281c9b11932}, !- Handle
  0800|1600|PrimarySchool|Cafeteria|occ |1/1-6/30|Sat/Sun Rule, !- Name
  {8ec124ce-47d4-4d0f-a55f-f66ed102dd75}, !- Schedule Ruleset Name
  0,                                      !- Rule Order
  {b8b27387-dab0-4d91-bf3a-082899cab9b1}, !- Day Schedule Name
  Yes,                                    !- Apply Sunday
  ,                                       !- Apply Monday
  ,                                       !- Apply Tuesday
  ,                                       !- Apply Wednesday
  ,                                       !- Apply Thursday
  ,                                       !- Apply Friday
  Yes,                                    !- Apply Saturday
  ,                                       !- Apply Holiday
  DateRange,                              !- Date Specification Type
  1,                                      !- Start Month
  1,                                      !- Start Day
  6,                                      !- End Month
  30;                                     !- End Day

OS:Schedule:Day,
  {b8b27387-dab0-4d91-bf3a-082899cab9b1}, !- Handle
  0800|1600|PrimarySchool|Cafeteria|occ |1/1-6/30|Sat/Sun, !- Name
  {ff7f59f9-e299-4c63-b189-0facd67c5260}, !- Schedule Type Limits Name
  ,                                       !- Interpolate to Timestep
  24,                                     !- Hour 1
  0,                                      !- Minute 1
  0;                                      !- Value Until Time 1

OS:Schedule:Rule,
  {935a5068-01a6-4323-9451-790263b713f0}, !- Handle
  0800|1600|PrimarySchool|Cafeteria|occ |7/1-9/1|Mon/Tue/Wed/Thu/Fri/Sat/Sun Rule, !- Name
  {8ec124ce-47d4-4d0f-a55f-f66ed102dd75}, !- Schedule Ruleset Name
  1,                                      !- Rule Order
  {4fa43774-5fc0-43f8-9cd4-59cb6b139dab}, !- Day Schedule Name
  Yes,                                    !- Apply Sunday
  Yes,                                    !- Apply Monday
  Yes,                                    !- Apply Tuesday
  Yes,                                    !- Apply Wednesday
  Yes,                                    !- Apply Thursday
  Yes,                                    !- Apply Friday
  Yes,                                    !- Apply Saturday
  ,                                       !- Apply Holiday
  DateRange,                              !- Date Specification Type
  7,                                      !- Start Month
  1,                                      !- Start Day
  9,                                      !- End Month
  1;                                      !- End Day

OS:Schedule:Day,
  {4fa43774-5fc0-43f8-9cd4-59cb6b139dab}, !- Handle
  0800|1600|PrimarySchool|Cafeteria|occ |7/1-9/1|Mon/Tue/Wed/Thu/Fri/Sat/Sun, !- Name
  {ff7f59f9-e299-4c63-b189-0facd67c5260}, !- Schedule Type Limits Name
  ,                                       !- Interpolate to Timestep
  9,                                      !- Hour 1
  0,                                      !- Minute 1
  0,                                      !- Value Until Time 1
  15,                                     !- Hour 2
  0,                                      !- Minute 2
  0.25,                                   !- Value Until Time 2
  24,                                     !- Hour 3
  0,                                      !- Minute 3
  0;                                      !- Value Until Time 3

OS:Schedule:Rule,
  {1a4e7a2e-4c00-431e-a0d2-b00539e25719}, !- Handle
  0800|1600|PrimarySchool|Cafeteria|occ |7/1-9/1|Sat/Sun Rule, !- Name
  {8ec124ce-47d4-4d0f-a55f-f66ed102dd75}, !- Schedule Ruleset Name
  2,                                      !- Rule Order
  {a3fa5671-152d-4f70-b45c-4013a6c14547}, !- Day Schedule Name
  Yes,                                    !- Apply Sunday
  ,                                       !- Apply Monday
  ,                                       !- Apply Tuesday
  ,                                       !- Apply Wednesday
  ,                                       !- Apply Thursday
  ,                                       !- Apply Friday
  Yes,                                    !- Apply Saturday
  ,                                       !- Apply Holiday
  DateRange,                              !- Date Specification Type
  7,                                      !- Start Month
  1,                                      !- Start Day
  9,                                      !- End Month
  1;                                      !- End Day

OS:Schedule:Day,
  {a3fa5671-152d-4f70-b45c-4013a6c14547}, !- Handle
  0800|1600|PrimarySchool|Cafeteria|occ |7/1-9/1|Sat/Sun, !- Name
  {ff7f59f9-e299-4c63-b189-0facd67c5260}, !- Schedule Type Limits Name
  ,                                       !- Interpolate to Timestep