
OS:Version,
  {0b7c30de-d572-43cc-bd28-fd3ec0190a8b}, !- Handle
  1.6.0;                                  !- Version Identifier

OS:ClimateZones,
  {135edfab-17e7-40db-a436-27d385a8cd6d}, !- Handle
  ,                                       !- Active Institution
  ,                                       !- Active Year
  ASHRAE,                                 !- Climate Zone Institution Name 1
  ANSI/ASHRAE Standard 169,               !- Climate Zone Document Name 1
  2006,                                   !- Climate Zone Document Year 1
  ,                                       !- Climate Zone Value 1
  CEC,                                    !- Climate Zone Institution Name 2
  California Climate Zone Descriptions,   !- Climate Zone Document Name 2
  1995,                                   !- Climate Zone Document Year 2
  ;                                       !- Climate Zone Value 2

OS:YearDescription,
  {513d8dda-86cb-442a-b01c-1f7f0e0ac70e}; !- Handle

OS:RadianceParameters,
  {270a96f1-3c86-4b75-a667-cdf22790e2c8}, !- Handle
  1,                                      !- Accumulated Rays per Record
  0,                                      !- Direct Threshold
  1,                                      !- Direct Certainty
  1,                                      !- Direct Jitter
  1,                                      !- Direct Pretest
  6,                                      !- Ambient Bounces VMX
  2,                                      !- Ambient Bounces DMX
  4050,                                   !- Ambient Divisions VMX
  512,                                    !- Ambient Divisions DMX
  256,                                    !- Ambient Supersamples
  0.001,                                  !- Limit Weight VMX
  0.001,                                  !- Limit Weight DMX
  500,                                    !- Klems Sampling Density
  146;                                    !- Sky Discretization Resolution

OS:SimulationControl,
  {2c487a4c-bac9-4ac5-b669-1e49d9da7c2b}, !- Handle
  ,                                       !- Do Zone Sizing Calculation
  ,                                       !- Do System Sizing Calculation
  ,                                       !- Do Plant Sizing Calculation
  No,                                     !- Run Simulation for Sizing Periods
  ,                                       !- Run Simulation for Weather File Run Periods
  0.04,                                   !- Loads Convergence Tolerance Value
  ,                                       !- Temperature Convergence Tolerance Value {deltaC}
  ,                                       !- Solar Distribution
  ,                                       !- Maximum Number of Warmup Days
  2;                                      !- Minimum Number of Warmup Days

OS:Sizing:Parameters,
  {dde5af6f-7923-4600-a28a-7556673a0266}, !- Handle
  1.25,                                   !- Heating Sizing Factor
  1.15;                                   !- Cooling Sizing Factor

OS:ProgramControl,
  {05027a99-f2b3-4aeb-afc6-1425fbb4371d}; !- Handle

OS:Timestep,
  {4ebc9f1e-4707-402e-9844-67eb1ffbd522}, !- Handle
  2;                                      !- Number of Timesteps per Hour

OS:OutputControl:ReportingTolerances,
  {65797aa2-06a9-45fe-b69d-bc6e060399d3}; !- Handle

OS:ConvergenceLimits,
  {9fc11aba-8822-4f3d-970c-46391ba4040d}; !- Handle

OS:ShadowCalculation,
  {ca758bea-4416-4626-9bba-3d8795c79bd6}, !- Handle
  7,                                      !- Calculation Frequency
  15000;                                  !- Maximum Figures in Shadow Overlap Calculations

OS:SurfaceConvectionAlgorithm:Inside,
  {aaabfc36-718a-4ab0-b622-f186ebb45230}, !- Handle
  TARP;                                   !- Algorithm

OS:SurfaceConvectionAlgorithm:Outside,
  {9a0a9f6f-4bbd-4b12-a121-9492a1fcd7d6}, !- Handle
  DOE-2;                                  !- Algorithm

OS:HeatBalanceAlgorithm,
  {9d93e563-e1e0-46d7-9e39-d1c8aceb7212}, !- Handle
  ConductionTransferFunction,             !- Algorithm
  200;                                    !- Surface Temperature Upper Limit {F}

OS:ZoneAirHeatBalanceAlgorithm,
  {8520d93e-310f-4696-9bcd-36228bfdd743}, !- Handle
  AnalyticalSolution;                     !- Algorithm

OS:ZoneAirContaminantBalance,
  {eb5fc3ae-fb22-4160-8fcb-3e3b22b000d3}; !- Handle

OS:ZoneCapacitanceMultiplier:ResearchSpecial,
  {4020ce4f-5a7a-4849-8028-8305d7b751b1}, !- Handle
  ,                                       !- Temperature Capacity Multiplier
  ,                                       !- Humidity Capacity Multiplier
  ;                                       !- Carbon Dioxide Capacity Multiplier

OS:RunPeriod,
  {28df894d-6af9-4fb8-8f56-df1753344aa3}, !- Handle
  Run Period 1,                           !- Name
  1,                                      !- Begin Month
  1,                                      !- Begin Day of Month
  12,                                     !- End Month
  31,                                     !- End Day of Month
  ,                                       !- Use Weather File Holidays and Special Days
  ,                                       !- Use Weather File Daylight Saving Period
  ,                                       !- Apply Weekend Holiday Rule
  ,                                       !- Use Weather File Rain Indicators
  ,                                       !- Use Weather File Snow Indicators
  ;                                       !- Number of Times Runperiod to be Repeated

OS:Building,
  {bf305633-c5a1-4881-9edf-ca5e1a8e1274}, !- Handle
  Building 1,                             !- Name
  ,                                       !- Building Sector Type
  ,                                       !- North Axis {deg}
  ,                                       !- Nominal Floor to Floor Height {m}
  ,                                       !- Space Type Name
  ,                                       !- Default Construction Set Name
  {30ffb63f-92d3-43e0-8b3b-a2aaf3d23cd6}, !- Default Schedule Set Name
  ,                                       !- Standards Number of Stories
  ,                                       !- Standards Number of Above Ground Stories
  PrimarySchool;                          !- Standards Building Type

OS:LifeCycleCost:Parameters,
  {231cf8a0-f0e7-4251-a99f-11f0d464e661}, !- Handle
  FEMP,                                   !- Analysis Type
  ,                                       !- Discounting Convention
  ,                                       !- Inflation Approach
  ,                                       !- Real Discount Rate
  ,                                       !- Nominal Discount Rate
  ,                                       !- Inflation
  ,                                       !- Base Date Month
  ,                                       !- Base Date Year
  ,                                       !- Service Date Month
  ,                                       !- Service Date Year
  ,                                       !- Length of Study Period in Years
  ,                                       !- Tax Rate
  ,                                       !- Depreciation Method
  Yes;                                    !- Use NIST Fuel Escalation Rates

OS:Facility,
  {3ba8e45b-b833-44eb-a723-ea6c3946dc96}; !- Handle

OS:SpaceType,
  {7fa8eade-b023-4fe1-aa95-7fa3b1a4f18a}, !- Handle
  PrimarySchool|BlendEdu|DOE Ref 2004|ASHRAE 169-2006-5A, !- Name
  {1f605aa9-84f5-4ca5-8512-63017607e66a}, !- Default Construction Set Name
  ,                                       !- Default Schedule Set Name
  {57d27ab7-8bc1-4881-9133-05d95bc8ec13}, !- Group Rendering Name
  {e2cfa9a3-284a-4683-8ee7-edd378b3be3a}, !- Design Specification Outdoor Air Object Name
  PrimarySchool,                          !- Standards Building Type
  BlendEdu;                               !- Standards Space Type

OS:Rendering:Color,
  {57d27ab7-8bc1-4881-9133-05d95bc8ec13}, !- Handle
  Rendering Color 1,                      !- Name
  120,                                    !- Rendering Red Value
  230,                                    !- Rendering Green Value
  199;                                    !- Rendering Blue Value

OS:SpaceType,
  {0243093d-b9e4-429d-b4d3-90b103bed1ce}, !- Handle
  PrimarySchool|BlendOff|DOE Ref 2004|ASHRAE 169-2006-5A, !- Name
  {1f605aa9-84f5-4ca5-8512-63017607e66a}, !- Default Construction Set Name
  ,                                       !- Default Schedule Set Name
  {22982415-7d66-40ad-88e2-ccd130ecf7db}, !- Group Rendering Name
  {bef9c8d4-2363-4be0-8bb2-ed387a9ad451}, !- Design Specification Outdoor Air Object Name
  PrimarySchool,                          !- Standards Building Type
  BlendOff;                               !- Standards Space Type

OS:Rendering:Color,
  {22982415-7d66-40ad-88e2-ccd130ecf7db}, !- Handle
  Rendering Color 2,                      !- Name
  120,                                    !- Rendering Red Value
  230,                                    !- Rendering Green Value
  199;                                    !- Rendering Blue Value

OS:SpaceType,
  {b839cc78-0a52-4512-9d06-6e9dc02bee06}, !- Handle
  PrimarySchool|Library|DOE Ref 2004|ASHRAE 169-2006-5A, !- Name
  {1f605aa9-84f5-4ca5-8512-63017607e66a}, !- Default Construction Set Name
  {bc344bb5-4605-4e30-92c8-8c5ccc43244c}, !- Default Schedule Set Name
  {26738120-58b2-4767-84fd-d9a44c4cf999}, !- Group Rendering Name
  {5a4395c2-29e4-4a52-ae57-86bc76c7fdcf}, !- Design Specification Outdoor Air Object Name
  PrimarySchool,                          !- Standards Building Type
  Library;                                !- Standards Space Type

OS:Rendering:Color,
  {26738120-58b2-4767-84fd-d9a44c4cf999}, !- Handle
  Rendering Color 3,                      !- Name
  230,                                    !- Rendering Red Value
  196,                                    !- Rendering Green Value
  120;                                    !- Rendering Blue Value

OS:SpaceType,
  {40f3e39f-e99d-4b5d-8a7e-cbd42a6e89e5}, !- Handle
  PrimarySchool|Gym|DOE Ref 2004|ASHRAE 169-2006-5A, !- Name
  {1f605aa9-84f5-4ca5-8512-63017607e66a}, !- Default Construction Set Name
  {71011e4d-52ef-4ec5-87d6-97c1c46f1f97}, !- Default Schedule Set Name
  {b3c5cc28-30e0-4ece-a978-192d33205d1d}, !- Group Rendering Name
  {d3758c12-ea96-402f-a9ab-ac384112e234}, !- Design Specification Outdoor Air Object Name
  PrimarySchool,                          !- Standards Building Type
  Gym;                                    !- Standards Space Type

OS:Rendering:Color,
  {b3c5cc28-30e0-4ece-a978-192d33205d1d}, !- Handle
  Rendering Color 4,                      !- Name
  154,                                    !- Rendering Red Value
  230,                                    !- Rendering Green Value
  120;                                    !- Rendering Blue Value

OS:SpaceType,
  {b8be3e05-7e32-47a3-8940-4e9236e10bdb}, !- Handle
  PrimarySchool|Cafeteria|DOE Ref 2004|ASHRAE 169-2006-5A, !- Name
  {1f605aa9-84f5-4ca5-8512-63017607e66a}, !- Default Construction Set Name
  {ad251fa3-bbfd-41f5-973e-3beec96413b8}, !- Default Schedule Set Name
  {e2bf97a3-edff-475c-a036-128477bad600}, !- Group Rendering Name
  {df99e4b7-21ed-477a-9704-bfba9c5fa578}, !- Design Specification Outdoor Air Object Name
  PrimarySchool,                          !- Standards Building Type
  Cafeteria;                              !- Standards Space Type

OS:Rendering:Color,
  {e2bf97a3-edff-475c-a036-128477bad600}, !- Handle
  Rendering Color 5,                      !- Name
  31,                                     !- Rendering Red Value
  169,                                    !- Rendering Green Value
  34;                                     !- Rendering Blue Value

OS:SpaceType,
  {9939e5bb-8572-4eb1-b4b8-1426095dea81}, !- Handle
  PrimarySchool|Kitchen|DOE Ref 2004|ASHRAE 169-2006-5A, !- Name
  {1f605aa9-84f5-4ca5-8512-63017607e66a}, !- Default Construction Set Name
  {0613e0b6-3f85-4f3d-845c-b8ed886ca66f}, !- Default Schedule Set Name
  {ef5471f1-5b4c-449b-9feb-cd0278d0c095}, !- Group Rendering Name
  {cadec801-5c78-4755-ab05-7ba0ff69c220}, !- Design Specification Outdoor Air Object Name
  PrimarySchool,                          !- Standards Building Type
  Kitchen;                                !- Standards Space Type

OS:Rendering:Color,
  {ef5471f1-5b4c-449b-9feb-cd0278d0c095}, !- Handle
  Rendering Color 6,                      !- Name
  78,                                     !- Rendering Red Value
  222,                                    !- Rendering Green Value
  133;                                    !- Rendering Blue Value

OS:Schedule:Ruleset,
  {f3fa9652-6c52-41e0-b6e7-01f3758505b0}, !- Handle
  0800|1600|PrimarySchool|default|hoo,    !- Name
  {24666fdc-b6c9-424d-8457-f6447ba7ef32}, !- Schedule Type Limits Name
  {17a18810-3cd7-4648-89ea-2568dfe6e923}, !- Default Day Schedule Name
  {fe01a4e9-4a0b-42d0-aed5-cbefea193ba0}, !- Summer Design Day Schedule Name
  {0ec23241-33a0-42e8-a95c-be48594e4de3}; !- Winter Design Day Schedule Name

OS:Schedule:Day,
  {17a18810-3cd7-4648-89ea-2568dfe6e923}, !- Handle
  0800|1600|PrimarySchool|default|hoo Schedule Week Day, !- Name
  {24666fdc-b6c9-424d-8457-f6447ba7ef32}, !- Schedule Type Limits Name
  ,                                       !- Interpolate to Timestep
  8,                                      !- Hour 1
  0,                                      !- Minute 1
  0,                                      !- Value Until Time 1
  16,                                     !- Hour 2
  0,                                      !- Minute 2
  1,                                      !- Value Until Time 2
  24,                                     !- Hour 3
  0,                                      !- Minute 3
  0;                                      !- Value Until Time 3

OS:Schedule:Day,
  {2886ae28-7083-45de-9937-5046bc2fdacf}, !- Handle
  Schedule Day 2,                         !- Name
  ,                                       !- Schedule Type Limits Name
  ,                                       !- Interpolate to Timestep
  24,                                     !- Hour 1
  0,                                      !- Minute 1
  0;                                      !- Value Until Time 1

OS:Schedule:Day,
  {0ec23241-33a0-42e8-a95c-be48594e4de3}, !- Handle
  0800|1600|PrimarySchool|default|hoo Winter Design Day, !- Name
  {24666fdc-b6c9-424d-8457-f6447ba7ef32}, !- Schedule Type Limits Name
  ,                                       !- Interpolate to Timestep
  24,                                     !- Hour 1
  0,                                      !- Minute 1
  0;                                      !- Value Until Time 1

OS:Schedule:Day,
  {b0e453e9-6d85-4abb-9421-2195b03e1052}, !- Handle
  Schedule Day 3,                         !- Name
  ,                                       !- Schedule Type Limits Name
  ,                                       !- Interpolate to Timestep
  24,                                     !- Hour 1
  0,                                      !- Minute 1
  0;                                      !- Value Until Time 1

OS:Schedule:Day,
  {fe01a4e9-4a0b-42d0-aed5-cbefea193ba0}, !- Handle
  0800|1600|PrimarySchool|default|hoo Summer Design Day, !- Name
  {24666fdc-b6c9-424d-8457-f6447ba7ef32}, !- Schedule Type Limits Name
  ,                                       !- Interpolate to Timestep
  24,                                     !- Hour 1
  0,                                      !- Minute 1
  1;                                      !- Value Until Time 1

OS:DefaultScheduleSet,
  {30ffb63f-92d3-43e0-8b3b-a2aaf3d23cd6}, !- Handle
  Building Hours of Operation,            !- Name
  {f3fa9652-6c52-41e0-b6e7-01f3758505b0}, !- Hours of Operation Schedule Name
  ,                                       !- Number of People Schedule Name
  ,                                       !- People Activity Level Schedule Name
  ,                                       !- Lighting Schedule Name
  ,                                       !- Electric Equipment Schedule Name
  ,                                       !- Gas Equipment Schedule Name
  ,                                       !- Hot Water Equipment Schedule Name
  ,                                       !- Infiltration Schedule Name
  ,                                       !- Steam Equipment Schedule Name
  ;                                       !- Other Equipment Schedule Name

OS:ScheduleTypeLimits,
  {24666fdc-b6c9-424d-8457-f6447ba7ef32}, !- Handle
  OnOff,                                  !- Name
  0,                                      !- Lower Limit Value {BasedOnField A4}
  1,                                      !- Upper Limit Value {BasedOnField A4}
  Discrete,                               !- Numeric Type
  Availability;                           !- Unit Type

OS:Schedule:Ruleset,
  {1b5270d4-58e9-4b79-bc4c-474aaab5d91d}, !- Handle
  0800|1600|PrimarySchool|Mechanical|clg_setpoint, !- Name
  {f558f3ee-5d14-473a-be0a-7315d0af072a}, !- Schedule Type Limits Name
  {3e600e1a-2aea-4fc4-98f2-4a379be1621e}, !- Default Day Schedule Name
  {741c45ff-5c1f-49fb-a3e6-ef1bd14850fb}, !- Summer Design Day Schedule Name
  {56c91164-81f1-4dae-9e4e-62c6c620fa59}; !- Winter Design Day Schedule Name

OS:ScheduleTypeLimits,
  {f558f3ee-5d14-473a-be0a-7315d0af072a}, !- Handle
  Thermostat Cooling Setpoint Schedule Type Limits, !- Name
  0,                                      !- Lower Limit Value {BasedOnField A4}
  100,                                    !- Upper Limit Value {BasedOnField A4}
  Continuous,                             !- Numeric Type
  Temperature;                            !- Unit Type

OS:Schedule:Day,
  {3e600e1a-2aea-4fc4-98f2-4a379be1621e}, !- Handle
  0800|1600|PrimarySchool|Mechanical|clg_setpoint |default, !- Name
  {f558f3ee-5d14-473a-be0a-7315d0af072a}, !- Schedule Type Limits Name
  ,                                       !- Interpolate to Timestep
  24,                                     !- Hour 1
  0,                                      !- Minute 1
  27.0000000000001;                       !- Value Until Time 1

OS:Schedule:Day,
  {741c45ff-5c1f-49fb-a3e6-ef1bd14850fb}, !- Handle
  0800|1600|PrimarySchool|Mechanical|clg_setpoint Summer Design Day, !- Name
  {f558f3ee-5d14-473a-be0a-7315d0af072a}, !- Schedule Type Limits Name
  ,                                       !- Interpolate to Timestep
  24,                                     !- Hour 1
  0,                                      !- Minute 1
  27.0000000000001;                       !- Value Until Time 1

OS:Schedule:Day,
  {56c91164-81f1-4dae-9e4e-62c6c620fa59}, !- Handle
  0800|1600|PrimarySchool|Mechanical|clg_setpoint Winter Design Day, !- Name
  {f558f3ee-5d14-473a-be0a-7315d0af072a}, !- Schedule Type Limits Name
  ,                                       !- Interpolate to Timestep
  24,                                     !- Hour 1
  0,                                      !- Minute 1
  27.0000000000001;                       !- Value Until Time 1

OS:Schedule:Ruleset,
  {fc227134-7626-4167-8e2e-781a18d2f5dd}, !- Handle
  0800|1600|PrimarySchool|default|work_eff, !- Name
  {b1250784-bb40-4bd5-9255-315bef47a66c}, !- Schedule Type Limits Name
  {3e7c9a3e-7075-417d-9170-34c952309e8d}, !- Default Day Schedule Name
  {339ea19a-1259-46e9-9dab-ee213637eb56}, !- Summer Design Day Schedule Name
  {0ae76dea-f980-42bc-bc04-39bd5b02bbe9}; !- Winter Design Day Schedule Name

OS:ScheduleTypeLimits,
  {b1250784-bb40-4bd5-9255-315bef47a66c}, !- Handle
  Fraction Schedule Type Limits,          !- Name
  0,                                      !- Lower Limit Value {BasedOnField A4}
  1,                                      !- Upper Limit Value {BasedOnField A4}
  Continuous,                             !- Numeric Type
  Dimensionless;                          !- Unit Type

OS:Schedule:Day,
  {3e7c9a3e-7075-417d-9170-34c952309e8d}, !- Handle
  0800|1600|PrimarySchool|default|work_eff |default, !- Name
  {b1250784-bb40-4bd5-9255-315bef47a66c}, !- Schedule Type Limits Name
  ,                                       !- Interpolate to Timestep
  24,                                     !- Hour 1
  0,                                      !- Minute 1
  0;                                      !- Value Until Time 1

OS:Schedule:Day,
  {339ea19a-1259-46e9-9dab-ee213637eb56}, !- Handle
  0800|1600|PrimarySchool|default|work_eff Summer Design Day, !- Name
  {b1250784-bb40-4bd5-9255-315bef47a66c}, !- Schedule Type Limits Name
  ,                                       !- Interpolate to Timestep
  24,                                     !- Hour 1
  0,                                      !- Minute 1
  0;                                      !- Value Until Time 1

OS:Schedule:Day,
  {0ae76dea-f980-42bc-bc04-39bd5b02bbe9}, !- Handle
  0800|1600|PrimarySchool|default|work_eff Winter Design Day, !- Name
  {b1250784-bb40-4bd5-9255-315bef47a66c}, !- Schedule Type Limits Name
  ,                                       !- Interpolate to Timestep
  24,                                     !- Hour 1
  0,                                      !- Minute 1
  0;                                      !- Value Until Time 1

OS:Schedule:Ruleset,
  {2eb5a144-44d0-4e61-8dcb-7794d29b3090}, !- Handle
  0800|1600|PrimarySchool|Cafeteria|occ,  !- Name
  {f3df0aed-6adc-40fc-9335-b417488a0b64}, !- Schedule Type Limits Name
  {6dad1b8c-51f0-4e7b-bcb2-bb1e7ed06e90}, !- Default Day Schedule Name
  {ae3bb5ce-55dd-4463-a62b-838407fe0b15}, !- Summer Design Day Schedule Name
  {f7791b1b-b5ce-470d-ad87-8a09b1e0374e}; !- Winter Design Day Schedule Name

OS:ScheduleTypeLimits,
  {f3df0aed-6adc-40fc-9335-b417488a0b64}, !- Handle
  Occupancy Schedule Type Limits,         !- Name
  0,                                      !- Lower Limit Value {BasedOnField A4}
  1,                                      !- Upper Limit Value {BasedOnField A4}
  Continuous,                             !- Numeric Type
  Dimensionless;                          !- Unit Type

OS:Schedule:Day,
  {6dad1b8c-51f0-4e7b-bcb2-bb1e7ed06e90}, !- Handle
  0800|1600|PrimarySchool|Cafeteria|occ |default, !- Name
  {f3df0aed-6adc-40fc-9335-b417488a0b64}, !- Schedule Type Limits Name
  ,                                       !- Interpolate to Timestep
  7,                                      !- Hour 1
  0,                                      !- Minute 1
  0,                                      !- Value Until Time 1
  9,                                      !- Hour 2
  0,                                      !- Minute 2
  0.15,                                   !- Value Until Time 2
  11,                                     !- Hour 3
  0,                                      !- Minute 3
  0.05,                                   !- Value Until Time 3
  13,                                     !- Hour 4
  0,                                      !- Minute 4
  0.95,                                   !- Value Until Time 4
  15,                                     !- Hour 5
  0,                                      !- Minute 5
  0.15,                                   !- Value Until Time 5
  24,                                     !- Hour 6
  0,                                      !- Minute 6
  0;                                      !- Value Until Time 6

OS:Schedule:Day,
  {ae3bb5ce-55dd-4463-a62b-838407fe0b15}, !- Handle
  0800|1600|PrimarySchool|Cafeteria|occ Summer Design Day, !- Name
  {f3df0aed-6adc-40fc-9335-b417488a0b64}, !- Schedule Type Limits Name
  ,                                       !- Interpolate to Timestep
  7,                                      !- Hour 1
  0,                                      !- Minute 1
  0,                                      !- Value Until Time 1
  9,                                      !- Hour 2
  0,                                      !- Minute 2
  0.15,                                   !- Value Until Time 2
  11,                                     !- Hour 3
  0,                                      !- Minute 3
  0.05,                                   !- Value Until Time 3
  13,                                     !- Hour 4
  0,                                      !- Minute 4
  1,                                      !- Value Until Time 4
  15,                                     !- Hour 5
  0,                                      !- Minute 5
  0.15,                                   !- Value Until Time 5
  24,                                     !- Hour 6
  0,                                      !- Minute 6
  0;                                      !- Value Until Time 6

OS:Schedule:Day,
  {f7791b1b-b5ce-470d-ad87-8a09b1e0374e}, !- Handle
  0800|1600|PrimarySchool|Cafeteria|occ Winter Design Day, !- Name
  {f3df0aed-6adc-40fc-9335-b417488a0b64}, !- Schedule Type Limits Name
  ,                                       !- Interpolate to Timestep
  24,                                     !- Hour 1
  0,                                      !- Minute 1
  0;                                      !- Value Until Time 1

OS:Schedule:Rule,
  {ec396d1e-c66c-439d-a867-5a11c13e60e3}, !- Handle
  0800|1600|PrimarySchool|Cafeteria|occ |1/1-6/30|Sat/Sun Rule, !- Name
  {2eb5a144-44d0-4e61-8dcb-7794d29b3090}, !- Schedule Ruleset Name
  0,                                      !- Rule Order
  {424aafaf-0f38-4329-8a69-4e538afd9f10}, !- Day Schedule Name
  Yes,                                    !- Apply Sunday
  ,                                       !- Apply Monday
  ,                                       !- Apply Tuesday
  ,                                       !- Apply Wednesday
  ,                                       !- Apply Thursday
  ,                                       !- Apply Friday
  Yes,                                    !- Apply Saturday
  ,                                       !- Apply Holiday
  DateRange,                              !- Date Specification Type
  1,                                      !- Start Month
  1,                                      !- Start Day
  6,                                      !- End Month
  30;                                     !- End Day

OS:Schedule:Day,
  {424aafaf-0f38-4329-8a69-4e538afd9f10}, !- Handle
  0800|1600|PrimarySchool|Cafeteria|occ |1/1-6/30|Sat/Sun, !- Name
  {f3df0aed-6adc-40fc-9335-b417488a0b64}, !- Schedule Type Limits Name
  ,                                       !- Interpolate to Timestep
  24,                                     !- Hour 1
  0,                                      !- Minute 1
  0;                                      !- Value Until Time 1

OS:Schedule:Rule,
  {4cc69293-4c47-4703-81fd-a5af00a73430}, !- Handle
  0800|1600|PrimarySchool|Cafeteria|occ |7/1-9/1|Mon/Tue/Wed/Thu/Fri/Sat/Sun Rule, !- Name
  {2eb5a144-44d0-4e61-8dcb-7794d29b3090}, !- Schedule Ruleset Name
  1,                                      !- Rule Order
  {47c4472d-eee9-4d11-b432-cf343bf1f687}, !- Day Schedule Name
  Yes,                                    !- Apply Sunday
  Yes,                                    !- Apply Monday
  Yes,                                    !- Apply Tuesday
  Yes,                                    !- Apply Wednesday
  Yes,                                    !- Apply Thursday
  Yes,                                    !- Apply Friday
  Yes,                                    !- Apply Saturday
  ,                                       !- Apply Holiday
  DateRange,                              !- Date Specification Type
  7,                                      !- Start Month
  1,                                      !- Start Day
  9,                                      !- End Month
  1;                                      !- End Day

OS:Schedule:Day,
  {47c4472d-eee9-4d11-b432-cf343bf1f687}, !- Handle
  0800|1600|PrimarySchool|Cafeteria|occ |7/1-9/1|Mon/Tue/Wed/Thu/Fri/Sat/Sun, !- Name
  {f3df0aed-6adc-40fc-9335-b417488a0b64}, !- Schedule Type Limits Name
  ,                                       !- Interpolate to Timestep
  9,                                      !- Hour 1
  0,                                      !- Minute 1
  0,                                      !- Value Until Time 1
  15,                                     !- Hour 2
  0,                                      !- Minute 2
  0.25,                                   !- Value Until Time 2
  24,                                     !- Hour 3
  0,                                      !- Minute 3
  0;                                      !- Value Until Time 3

OS:Schedule:Rule,
  {e0ba9dfc-37e8-4e2e-a078-fe08d3c5c54f}, !- Handle
  0800|1600|PrimarySchool|Cafeteria|occ |7/1-9/1|Sat/Sun Rule, !- Name
  {2eb5a144-44d0-4e61-8dcb-7794d29b3090}, !- Schedule Ruleset Name
  2,                                      !- Rule Order
  {db64159e-a3d2-4a8e-bcd8-1d6cb8b79acf}, !- Day Schedule Name
  Yes,                                    !- Apply Sunday
  ,                                       !- Apply Monday
  ,                                       !- Apply Tuesday
  ,                                       !- Apply Wednesday
  ,                                       !- Apply Thursday
  ,                                       !- Apply Friday
  Yes,                                    !- Apply Saturday
  ,                                       !- Apply Holiday
  DateRange,                              !- Date Specification Type
  7,                                      !- Start Month
  1,                                      !- Start Day
  9,                                      !- End Month
  1;                                      !- End Day

OS:Schedule:Day,
  {db64159e-a3d2-4a8e-bcd8-1d6cb8b79acf}, !- Handle
  0800|1600|PrimarySchool|Cafeteria|occ |7/1-9/1|Sat/Sun, !- Name
  {f3df0aed-6adc-40fc-9335-b417488a0b64}, !- Schedule Type Limits Name
  ,                                       !- Interpolate to Timestep