
OS:Version,
  {59eff3ea-32f7-4e93-8505-8bd250caa02f}, !- Handle
  1.5.5;                                  !- Version Identifier

OS:ClimateZones,
  {135edfab-17e7-40db-a436-27d385a8cd6d}, !- Handle
  ,                                       !- Active Institution
  ,                                       !- Active Year
  ASHRAE,                                 !- Climate Zone Institution Name 1
  ANSI/ASHRAE Standard 169,               !- Climate Zone Document Name 1
  2006,                                   !- Climate Zone Document Year 1
  ,                                       !- Climate Zone Value 1
  CEC,                                    !- Climate Zone Institution Name 2
  California Climate Zone Descriptions,   !- Climate Zone Document Name 2
  1995,                                   !- Climate Zone Document Year 2
  ;                                       !- Climate Zone Value 2

OS:YearDescription,
  {513d8dda-86cb-442a-b01c-1f7f0e0ac70e}; !- Handle

OS:RadianceParameters,
  {270a96f1-3c86-4b75-a667-cdf22790e2c8}, !- Handle
  1,                                      !- Accumulated Rays per Record
  0,                                      !- Direct Threshold
  1,                                      !- Direct Certainty
  1,                                      !- Direct Jitter
  1,                                      !- Direct Pretest
  6,                                      !- Ambient Bounces VMX
  2,                                      !- Ambient Bounces DMX
  4050,                                   !- Ambient Divisions VMX
  512,                                    !- Ambient Divisions DMX
  256,                                    !- Ambient Supersamples
  0.001,                                  !- Limit Weight VMX
  0.001,                                  !- Limit Weight DMX
  500,                                    !- Klems Sampling Density
  146;                                    !- Sky Discretization Resolution

OS:SimulationControl,
  {2c487a4c-bac9-4ac5-b669-1e49d9da7c2b}, !- Handle
  ,                                       !- Do Zone Sizing Calculation
  ,                                       !- Do System Sizing Calculation
  ,                                       !- Do Plant Sizing Calculation
  No,                                     !- Run Simulation for Sizing Periods
  ,                                       !- Run Simulation for Weather File Run Periods
  0.04,                                   !- Loads Convergence Tolerance Value
  ,                                       !- Temperature Convergence Tolerance Value {deltaC}
  ,                                       !- Solar Distribution
  ,                                       !- Maximum Number of Warmup Days
  2;                                      !- Minimum Number of Warmup Days

OS:Sizing:Parameters,
  {dde5af6f-7923-4600-a28a-7556673a0266}, !- Handle
  1.25,                                   !- Heating Sizing Factor
  1.15;                                   !- Cooling Sizing Factor

OS:ProgramControl,
  {05027a99-f2b3-4aeb-afc6-1425fbb4371d}; !- Handle

OS:Timestep,
  {4ebc9f1e-4707-402e-9844-67eb1ffbd522}, !- Handle
  2;                                      !- Number of Timesteps per Hour

OS:OutputControl:ReportingTolerances,
  {65797aa2-06a9-45fe-b69d-bc6e060399d3}; !- Handle

OS:ConvergenceLimits,
  {9fc11aba-8822-4f3d-970c-46391ba4040d}; !- Handle

OS:ShadowCalculation,
  {ca758bea-4416-4626-9bba-3d8795c79bd6}, !- Handle
  7,                                      !- Calculation Frequency
  15000;                                  !- Maximum Figures in Shadow Overlap Calculations

OS:SurfaceConvectionAlgorithm:Inside,
  {aaabfc36-718a-4ab0-b622-f186ebb45230}, !- Handle
  TARP;                                   !- Algorithm

OS:SurfaceConvectionAlgorithm:Outside,
  {9a0a9f6f-4bbd-4b12-a121-9492a1fcd7d6}, !- Handle
  DOE-2;                                  !- Algorithm

OS:HeatBalanceAlgorithm,
  {9d93e563-e1e0-46d7-9e39-d1c8aceb7212}, !- Handle
  ConductionTransferFunction,             !- Algorithm
  200;                                    !- Surface Temperature Upper Limit {F}

OS:ZoneAirHeatBalanceAlgorithm,
  {8520d93e-310f-4696-9bcd-36228bfdd743}, !- Handle
  AnalyticalSolution;                     !- Algorithm

OS:ZoneAirContaminantBalance,
  {eb5fc3ae-fb22-4160-8fcb-3e3b22b000d3}; !- Handle

OS:ZoneCapacitanceMultiplier:ResearchSpecial,
  {4020ce4f-5a7a-4849-8028-8305d7b751b1}, !- Handle
  ,                                       !- Temperature Capacity Multiplier
  ,                                       !- Humidity Capacity Multiplier
  ;                                       !- Carbon Dioxide Capacity Multiplier

OS:RunPeriod,
  {28df894d-6af9-4fb8-8f56-df1753344aa3}, !- Handle
  Run Period 1,                           !- Name
  1,                                      !- Begin Month
  1,                                      !- Begin Day of Month
  12,                                     !- End Month
  31,                                     !- End Day of Month
  ,                                       !- Use Weather File Holidays and Special Days
  ,                                       !- Use Weather File Daylight Saving Period
  ,                                       !- Apply Weekend Holiday Rule
  ,                                       !- Use Weather File Rain Indicators
  ,                                       !- Use Weather File Snow Indicators
  ;                                       !- Number of Times Runperiod to be Repeated

OS:Building,
  {bf305633-c5a1-4881-9edf-ca5e1a8e1274}, !- Handle
  Building 1,                             !- Name
  ,                                       !- Building Sector Type
  ,                                       !- North Axis {deg}
  ,                                       !- Nominal Floor to Floor Height {m}
  ,                                       !- Space Type Name
  ,                                       !- Default Construction Set Name
  {e6d99dbc-8bf1-42b3-ba42-7ff178491c18}, !- Default Schedule Set Name
  ,                                       !- Standards Number of Stories
  ,                                       !- Standards Number of Above Ground Stories
  PrimarySchool;                          !- Standards Building Type

OS:LifeCycleCost:Parameters,
  {231cf8a0-f0e7-4251-a99f-11f0d464e661}, !- Handle
  FEMP,                                   !- Analysis Type
  ,                                       !- Discounting Convention
  ,                                       !- Inflation Approach
  ,                                       !- Real Discount Rate
  ,                                       !- Nominal Discount Rate
  ,                                       !- Inflation
  ,                                       !- Base Date Month
  ,                                       !- Base Date Year
  ,                                       !- Service Date Month
  ,                                       !- Service Date Year
  ,                                       !- Length of Study Period in Years
  ,                                       !- Tax Rate
  ,                                       !- Depreciation Method
  Yes;                                    !- Use NIST Fuel Escalation Rates

OS:Facility,
  {3ba8e45b-b833-44eb-a723-ea6c3946dc96}; !- Handle

OS:SpaceType,
  {f656fb51-8218-439f-9f24-31274b622e23}, !- Handle
  PrimarySchool|BlendEdu|DOE Ref Pre-1980|ASHRAE 169-2006-5A, !- Name
  {f2066308-73da-4681-8043-f34a54047549}, !- Default Construction Set Name
  ,                                       !- Default Schedule Set Name
  {9c2cebc8-18b1-4fe8-8baf-a6f5c1ad3f09}, !- Group Rendering Name
  {21eac003-4ce5-4d52-af79-984ae6d3e076}, !- Design Specification Outdoor Air Object Name
  PrimarySchool,                          !- Standards Building Type
  BlendEdu;                               !- Standards Space Type

OS:Rendering:Color,
  {9c2cebc8-18b1-4fe8-8baf-a6f5c1ad3f09}, !- Handle
  Rendering Color 1,                      !- Name
  120,                                    !- Rendering Red Value
  230,                                    !- Rendering Green Value
  199;                                    !- Rendering Blue Value

OS:SpaceType,
  {07b9743a-1cf8-490d-b11a-064af0957b06}, !- Handle
  PrimarySchool|BlendOff|DOE Ref Pre-1980|ASHRAE 169-2006-5A, !- Name
  {f2066308-73da-4681-8043-f34a54047549}, !- Default Construction Set Name
  ,                                       !- Default Schedule Set Name
  {b5dbdf6a-bb17-4fa0-a051-7cf8af82f26c}, !- Group Rendering Name
  {63306e4f-5c4c-4684-9ee9-23f245224075}, !- Design Specification Outdoor Air Object Name
  PrimarySchool,                          !- Standards Building Type
  BlendOff;                               !- Standards Space Type

OS:Rendering:Color,
  {b5dbdf6a-bb17-4fa0-a051-7cf8af82f26c}, !- Handle
  Rendering Color 2,                      !- Name
  120,                                    !- Rendering Red Value
  230,                                    !- Rendering Green Value
  199;                                    !- Rendering Blue Value

OS:SpaceType,
  {0429036f-a234-4adb-8cd5-e809cd297cda}, !- Handle
  PrimarySchool|Library|DOE Ref Pre-1980|ASHRAE 169-2006-5A, !- Name
  {f2066308-73da-4681-8043-f34a54047549}, !- Default Construction Set Name
  {f8d67c51-1969-42b0-b1c8-3f00c8dfddd2}, !- Default Schedule Set Name
  {70132810-da29-4f74-b0ef-cbb9b1e33b40}, !- Group Rendering Name
  {17a266a7-87b4-4632-8617-7ac35403f3dd}, !- Design Specification Outdoor Air Object Name
  PrimarySchool,                          !- Standards Building Type
  Library;                                !- Standards Space Type

OS:Rendering:Color,
  {70132810-da29-4f74-b0ef-cbb9b1e33b40}, !- Handle
  Rendering Color 3,                      !- Name
  230,                                    !- Rendering Red Value
  196,                                    !- Rendering Green Value
  120;                                    !- Rendering Blue Value

OS:SpaceType,
  {99799a47-44ad-4767-a7b8-254b24a0ba2f}, !- Handle
  PrimarySchool|Gym|DOE Ref Pre-1980|ASHRAE 169-2006-5A, !- Name
  {f2066308-73da-4681-8043-f34a54047549}, !- Default Construction Set Name
  {4d33d026-e11f-467a-b883-17ff8257b888}, !- Default Schedule Set Name
  {f776e5c3-afc9-44f7-983a-29fa58569d6d}, !- Group Rendering Name
  {db7cdace-121e-44bf-a1a7-b776a999182d}, !- Design Specification Outdoor Air Object Name
  PrimarySchool,                          !- Standards Building Type
  Gym;                                    !- Standards Space Type

OS:Rendering:Color,
  {f776e5c3-afc9-44f7-983a-29fa58569d6d}, !- Handle
  Rendering Color 4,                      !- Name
  154,                                    !- Rendering Red Value
  230,                                    !- Rendering Green Value
  120;                                    !- Rendering Blue Value

OS:SpaceType,
  {6703ab01-8fbf-473e-a55d-03edb834853f}, !- Handle
  PrimarySchool|Cafeteria|DOE Ref Pre-1980|ASHRAE 169-2006-5A, !- Name
  {f2066308-73da-4681-8043-f34a54047549}, !- Default Construction Set Name
  {d29b02a9-68f1-4359-a66f-95de6c0b43b5}, !- Default Schedule Set Name
  {5049323c-ad84-4797-af36-8b0fb2e73c2c}, !- Group Rendering Name
  {7cf00d04-3d5e-4733-b290-544c0786a8bb}, !- Design Specification Outdoor Air Object Name
  PrimarySchool,                          !- Standards Building Type
  Cafeteria;                              !- Standards Space Type

OS:Rendering:Color,
  {5049323c-ad84-4797-af36-8b0fb2e73c2c}, !- Handle
  Rendering Color 5,                      !- Name
  31,                                     !- Rendering Red Value
  169,                                    !- Rendering Green Value
  34;                                     !- Rendering Blue Value

OS:SpaceType,
  {f5d01991-51ac-4ac2-94c9-8cfe67ae694c}, !- Handle
  PrimarySchool|Kitchen|DOE Ref Pre-1980|ASHRAE 169-2006-5A, !- Name
  {f2066308-73da-4681-8043-f34a54047549}, !- Default Construction Set Name
  {1255fdbf-d5e6-4d0f-a222-bfd29ae8ceb8}, !- Default Schedule Set Name
  {251bca6c-3a5d-4adc-a907-a7ccb1f14fa1}, !- Group Rendering Name
  {137970f1-a933-4bf4-86d8-a56834ac02ec}, !- Design Specification Outdoor Air Object Name
  PrimarySchool,                          !- Standards Building Type
  Kitchen;                                !- Standards Space Type

OS:Rendering:Color,
  {251bca6c-3a5d-4adc-a907-a7ccb1f14fa1}, !- Handle
  Rendering Color 6,                      !- Name
  78,                                     !- Rendering Red Value
  222,                                    !- Rendering Green Value
  133;                                    !- Rendering Blue Value

OS:Schedule:Ruleset,
  {893e2370-7245-4d9d-b25a-2f15e2b4f631}, !- Handle
  0800|1600|PrimarySchool|default|hoo,    !- Name
  {9562947d-c502-4fc6-bc7a-e666d17b8da2}, !- Schedule Type Limits Name
  {3dbe6336-1ad0-4d08-85c6-3b5ac11eb3cf}, !- Default Day Schedule Name
  {e0e53326-a1a9-4d3e-a421-ec75ff3fb3c2}, !- Summer Design Day Schedule Name
  {a6addbb7-de38-4dae-a9ee-b19affa9d93d}; !- Winter Design Day Schedule Name

OS:Schedule:Day,
  {3dbe6336-1ad0-4d08-85c6-3b5ac11eb3cf}, !- Handle
  0800|1600|PrimarySchool|default|hoo Schedule Week Day, !- Name
  {9562947d-c502-4fc6-bc7a-e666d17b8da2}, !- Schedule Type Limits Name
  ,                                       !- Interpolate to Timestep
  8,                                      !- Hour 1
  0,                                      !- Minute 1
  0,                                      !- Value Until Time 1
  16,                                     !- Hour 2
  0,                                      !- Minute 2
  1,                                      !- Value Until Time 2
  24,                                     !- Hour 3
  0,                                      !- Minute 3
  0;                                      !- Value Until Time 3

OS:Schedule:Day,
  {ee689fae-4718-46b6-8621-5f01ab5c30c8}, !- Handle
  Schedule Day 2,                         !- Name
  ,                                       !- Schedule Type Limits Name
  ,                                       !- Interpolate to Timestep
  24,                                     !- Hour 1
  0,                                      !- Minute 1
  0;                                      !- Value Until Time 1

OS:Schedule:Day,
  {a6addbb7-de38-4dae-a9ee-b19affa9d93d}, !- Handle
  0800|1600|PrimarySchool|default|hoo Winter Design Day, !- Name
  {9562947d-c502-4fc6-bc7a-e666d17b8da2}, !- Schedule Type Limits Name
  ,                                       !- Interpolate to Timestep
  24,                                     !- Hour 1
  0,                                      !- Minute 1
  0;                                      !- Value Until Time 1

OS:Schedule:Day,
  {423dafae-5599-40f9-9aea-deb53bc5963f}, !- Handle
  Schedule Day 3,                         !- Name
  ,                                       !- Schedule Type Limits Name
  ,                                       !- Interpolate to Timestep
  24,                                     !- Hour 1
  0,                                      !- Minute 1
  0;                                      !- Value Until Time 1

OS:Schedule:Day,
  {e0e53326-a1a9-4d3e-a421-ec75ff3fb3c2}, !- Handle
  0800|1600|PrimarySchool|default|hoo Summer Design Day, !- Name
  {9562947d-c502-4fc6-bc7a-e666d17b8da2}, !- Schedule Type Limits Name
  ,                                       !- Interpolate to Timestep
  24,                                     !- Hour 1
  0,                                      !- Minute 1
  1;                                      !- Value Until Time 1

OS:DefaultScheduleSet,
  {e6d99dbc-8bf1-42b3-ba42-7ff178491c18}, !- Handle
  Building Hours of Operation,            !- Name
  {893e2370-7245-4d9d-b25a-2f15e2b4f631}, !- Hours of Operation Schedule Name
  ,                                       !- Number of People Schedule Name
  ,                                       !- People Activity Level Schedule Name
  ,                                       !- Lighting Schedule Name
  ,                                       !- Electric Equipment Schedule Name
  ,                                       !- Gas Equipment Schedule Name
  ,                                       !- Hot Water Equipment Schedule Name
  ,                                       !- Infiltration Schedule Name
  ,                                       !- Steam Equipment Schedule Name
  ;                                       !- Other Equipment Schedule Name

OS:ScheduleTypeLimits,
  {9562947d-c502-4fc6-bc7a-e666d17b8da2}, !- Handle
  OnOff,                                  !- Name
  0,                                      !- Lower Limit Value {BasedOnField A4}
  1,                                      !- Upper Limit Value {BasedOnField A4}
  Discrete,                               !- Numeric Type
  Availability;                           !- Unit Type

OS:Schedule:Ruleset,
  {3e2de4f2-717e-42a9-a688-2f6774a0f573}, !- Handle
  0800|1600|PrimarySchool|default|rh,     !- Name
  {b12cb7ad-2b84-4cc1-89e2-9883ee7082c6}, !- Schedule Type Limits Name
  {d6ae25e7-7152-4ab4-bd76-9005b11d3a60}, !- Default Day Schedule Name
  {a17ae4ba-d4b5-4a47-83c8-f7e8674dc934}, !- Summer Design Day Schedule Name
  {fcc0cbc2-42a1-427f-9d01-4d16f433e367}; !- Winter Design Day Schedule Name

OS:ScheduleTypeLimits,
  {b12cb7ad-2b84-4cc1-89e2-9883ee7082c6}, !- Handle
  Dimensionless Schedule Type Limits,     !- Name
  ,                                       !- Lower Limit Value {BasedOnField A4}
  ,                                       !- Upper Limit Value {BasedOnField A4}
  Continuous,                             !- Numeric Type
  Dimensionless;                          !- Unit Type

OS:Schedule:Day,
  {d6ae25e7-7152-4ab4-bd76-9005b11d3a60}, !- Handle
  0800|1600|PrimarySchool|default|rh |default, !- Name
  {b12cb7ad-2b84-4cc1-89e2-9883ee7082c6}, !- Schedule Type Limits Name
  ,                                       !- Interpolate to Timestep
  24,                                     !- Hour 1
  0,                                      !- Minute 1
  50;                                     !- Value Until Time 1

OS:Schedule:Day,
  {a17ae4ba-d4b5-4a47-83c8-f7e8674dc934}, !- Handle
  0800|1600|PrimarySchool|default|rh Summer Design Day, !- Name
  {b12cb7ad-2b84-4cc1-89e2-9883ee7082c6}, !- Schedule Type Limits Name
  ,                                       !- Interpolate to Timestep
  24,                                     !- Hour 1
  0,                                      !- Minute 1
  50;                                     !- Value Until Time 1

OS:Schedule:Day,
  {fcc0cbc2-42a1-427f-9d01-4d16f433e367}, !- Handle
  0800|1600|PrimarySchool|default|rh Winter Design Day, !- Name
  {b12cb7ad-2b84-4cc1-89e2-9883ee7082c6}, !- Schedule Type Limits Name
  ,                                       !- Interpolate to Timestep
  24,                                     !- Hour 1
  0,                                      !- Minute 1
  50;                                     !- Value Until Time 1

OS:Schedule:Ruleset,
  {e19e04d8-fca9-484d-8134-6efa85a772ce}, !- Handle
  0800|1600|PrimarySchool|Kitchen|elec_equip, !- Name
  {1848c5de-d012-413a-ad77-10871a6447be}, !- Schedule Type Limits Name
  {5d949348-9437-4a95-b21c-290f819f09d2}, !- Default Day Schedule Name
  {b0a1f75a-24e5-487c-b952-8c65f6a554c8}, !- Summer Design Day Schedule Name
  {798c5637-2ec4-4fe8-95d6-de96209b2bf5}; !- Winter Design Day Schedule Name

OS:ScheduleTypeLimits,
  {1848c5de-d012-413a-ad77-10871a6447be}, !- Handle
  Equipment Schedule Type Limits,         !- Name
  0,                                      !- Lower Limit Value {BasedOnField A4}
  1,                                      !- Upper Limit Value {BasedOnField A4}
  Continuous,                             !- Numeric Type
  Dimensionless;                          !- Unit Type

OS:Schedule:Day,
  {5d949348-9437-4a95-b21c-290f819f09d2}, !- Handle
  0800|1600|PrimarySchool|Kitchen|elec_equip |default, !- Name
  {1848c5de-d012-413a-ad77-10871a6447be}, !- Schedule Type Limits Name
  ,                                       !- Interpolate to Timestep
  8,                                      !- Hour 1
  0,                                      !- Minute 1
  0.1,                                    !- Value Until Time 1
  10,                                     !- Hour 2
  0,                                      !- Minute 2
  0.15,                                   !- Value Until Time 2
  13,                                     !- Hour 3
  0,                                      !- Minute 3
  0.25,                                   !- Value Until Time 3
  15,                                     !- Hour 4
  0,                                      !- Minute 4
  0.15,                                   !- Value Until Time 4
  24,                                     !- Hour 5
  0,                                      !- Minute 5
  0.1;                                    !- Value Until Time 5

OS:Schedule:Day,
  {b0a1f75a-24e5-487c-b952-8c65f6a554c8}, !- Handle
  0800|1600|PrimarySchool|Kitchen|elec_equip Summer Design Day, !- Name
  {1848c5de-d012-413a-ad77-10871a6447be}, !- Schedule Type Limits Name
  ,                                       !- Interpolate to Timestep
  8,                                      !- Hour 1
  0,                                      !- Minute 1
  0.1,                                    !- Value Until Time 1
  10,                                     !- Hour 2
  0,                                      !- Minute 2
  0.15,                                   !- Value Until Time 2
  13,                                     !- Hour 3
  0,                                      !- Minute 3
  0.25,                                   !- Value Until Time 3
  15,                                     !- Hour 4
  0,                                      !- Minute 4
  0.15,                                   !- Value Until Time 4
  24,                                     !- Hour 5
  0,                                      !- Minute 5
  0.1;                                    !- Value Until Time 5

OS:Schedule:Day,
  {798c5637-2ec4-4fe8-95d6-de96209b2bf5}, !- Handle
  0800|1600|PrimarySchool|Kitchen|elec_equip Winter Design Day, !- Name
  {1848c5de-d012-413a-ad77-10871a6447be}, !- Schedule Type Limits Name
  ,                                       !- Interpolate to Timestep
  24,                                     !- Hour 1
  0,                                      !- Minute 1
  0.1;                                    !- Value Until Time 1

OS:Schedule:Rule,
  {2905d163-c970-45ae-8a2f-dbeec53eda06}, !- Handle
  0800|1600|PrimarySchool|Kitchen|elec_equip |1/1-6/30|Sat/Sun Rule, !- Name
  {e19e04d8-fca9-484d-8134-6efa85a772ce}, !- Schedule Ruleset Name
  0,                                      !- Rule Order
  {de6a88ec-4bd5-4e68-af20-82ff01b288b1}, !- Day Schedule Name
  Yes,                                    !- Apply Sunday
  ,                                       !- Apply Monday
  ,                                       !- Apply Tuesday
  ,                                       !- Apply Wednesday
  ,                                       !- Apply Thursday
  ,                                       !- Apply Friday
  Yes,                                    !- Apply Saturday
  ,                                       !- Apply Holiday
  DateRange,                              !- Date Specification Type
  1,                                      !- Start Month
  1,                                      !- Start Day
  6,                                      !- End Month
  30;                                     !- End Day

OS:Schedule:Day,
  {de6a88ec-4bd5-4e68-af20-82ff01b288b1}, !- Handle
  0800|1600|PrimarySchool|Kitchen|elec_equip |1/1-6/30|Sat/Sun, !- Name
  {1848c5de-d012-413a-ad77-10871a6447be}, !- Schedule Type Limits Name
  ,                                       !- Interpolate to Timestep
  24,                                     !- Hour 1
  0,                                      !- Minute 1
  0.1;                                    !- Value Until Time 1

OS:Schedule:Rule,
  {8add23bd-9250-49e2-bd92-8ce5db3ed01e}, !- Handle
  0800|1600|PrimarySchool|Kitchen|elec_equip |7/1-9/1|Mon/Tue/Wed/Thu/Fri/Sat/Sun Rule, !- Name
  {e19e04d8-fca9-484d-8134-6efa85a772ce}, !- Schedule Ruleset Name
  1,                                      !- Rule Order
  {dff5822a-6569-42fb-aabf-cb498f8c4e0a}, !- Day Schedule Name
  Yes,                                    !- Apply Sunday
  Yes,                                    !- Apply Monday
  Yes,                                    !- Apply Tuesday
  Yes,                                    !- Apply Wednesday
  Yes,                                    !- Apply Thursday
  Yes,                                    !- Apply Friday
  Yes,                                    !- Apply Saturday
  ,                                       !- Apply Holiday
  DateRange,                              !- Date Specification Type
  7,                                      !- Start Month
  1,                                      !- Start Day
  9,                                      !- End Month
  1;                                      !- End Day

OS:Schedule:Day,
  {dff5822a-6569-42fb-aabf-cb498f8c4e0a}, !- Handle
  0800|1600|PrimarySchool|Kitchen|elec_equip |7/1-9/1|Mon/Tue/Wed/Thu/Fri/Sat/Sun, !- Name
  {1848c5de-d012-413a-ad77-10871a6447be}, !- Schedule Type Limits Name
  ,                                       !- Interpolate to Timestep
  8,                                      !- Hour 1
  0,                                      !- Minute 1
  0.1,                                    !- Value Until Time 1
  10,                                     !- Hour 2
  0,                                      !- Minute 2
  0.13,                                   !- Value Until Time 2
  13,                                     !- Hour 3
  0,                                      !- Minute 3
  0.2,                                    !- Value Until Time 3
  15,                                     !- Hour 4
  0,                                      !- Minute 4
  0.13,                                   !- Value Until Time 4
  24,                                     !- Hour 5
  0,                                      !- Minute 5
  0.1;                                    !- Value Until Time 5

OS:Schedule:Rule,
  {209608c8-492e-4214-951f-3c8418e2a979}, !- Handle
  0800|1600|PrimarySchool|Kitchen|elec_equip |7/1-9/1|Sat/Sun Rule, !- Name
  {e19e04d8-fca9-484d-8134-6efa85a772ce}, !- Schedule Ruleset Name
  2,                                      !- Rule Order
  {5e43105e-5d69-4f99-bcaa-7408ac96fca3}, !- Day Schedule Name
  Yes,                                    !- Apply Sunday
  ,                                       !- Apply Monday
  ,                                       !- Apply Tuesday
  ,                                       !- Apply Wednesday
  ,                                       !- Apply Thursday
  ,                                       !- Apply Friday
  Yes,                                    !- Apply Saturday
  ,                                       !- Apply Holiday
  DateRange,                              !- Date Specification Type
  7,                                      !- Start Month
  1,                                      !- Start Day
  9,                                      !- End Month
  1;                                      !- End Day

OS:Schedule:Day,
  {5e43105e-5d69-4f99-bcaa-7408ac96fca3}, !- Handle
  0800|1600|PrimarySchool|Kitchen|elec_equip |7/1-9/1|Sat/Sun, !- Name
  {1848c5de-d012-413a-ad77-10871a6447be}, !- Schedule Type Limits Name
  ,                                       !- Interpolate to Timestep
  24,                                     !- Hour 1
  0,                                      !- Minute 1
  0.1;                                    !- Value Until Time 1

OS:Schedule:Rule,
  {4f98acca-14dc-47c2-9c35-f8607c466fd1}, !- Handle
  0800|1600|PrimarySchool|Kitchen|elec_equip |9/1-12/31|Mon/Tue/Wed/Thu/Fri/Sat/Sun Rule, !- Name
  {e19e04d8-fca9-484d-8134-6efa85a772ce}, !- Schedule Ruleset Name
  3,                                      !- Rule Order
  {04e3e431-7c05-4616-a51c-7a254afb5330}, !- Day Schedule Name
  Yes,                                    !- Apply Sunday
  Yes,                                    !- Apply Monday
  Yes,                                    !- Apply Tuesday
  Yes,                                    !- Apply Wednesday
  Yes,                                    !- Apply Thursday
  Yes,                                    !- Apply Friday
  Yes,                                    !- Apply Saturday
  ,                                       !- Apply Holiday
  DateRange,                              !- Date Specification Type
  9,                                      !- Start Month
  1,                                      !- Start Day
  12,                                     !- End Month
  31;                                     !- End Day

OS:Schedule:Day,
  {04e3e431-7c05-4616-a51c-7a254afb5330}, !- Handle
  0800|1600|PrimarySchool|Kitchen|elec_equip |9/1-12/31|Mon/Tue/Wed/Thu/Fri/Sat/Sun, !- Name
  {1848c5de-d012-413a-ad77-10871a6447be}, !- Schedule Type Limits Name
  ,                                       !- Interpolate to Timestep
  8,                                      !- Hour 1
  0,                                      !- Minute 1
  0.1,                                    !- Value Until Time 1
  10,                                     !- Hour 2
  0,                                      !- Minute 2
  0.15,                                   !- Value Until Time 2
  13,                                     !- Hour 3
  0,                                      !- Minute 3
  0.25,                                   !- Value Until Time 3
  15,                                     !- Hour 4