
OS:Version,
  {08d272d8-b0dc-4127-ae02-35483fafa44c}, !- Handle
  1.5.5;                                  !- Version Identifier

OS:ClimateZones,
  {135edfab-17e7-40db-a436-27d385a8cd6d}, !- Handle
  ,                                       !- Active Institution
  ,                                       !- Active Year
  ASHRAE,                                 !- Climate Zone Institution Name 1
  ANSI/ASHRAE Standard 169,               !- Climate Zone Document Name 1
  2006,                                   !- Climate Zone Document Year 1
  ,                                       !- Climate Zone Value 1
  CEC,                                    !- Climate Zone Institution Name 2
  California Climate Zone Descriptions,   !- Climate Zone Document Name 2
  1995,                                   !- Climate Zone Document Year 2
  ;                                       !- Climate Zone Value 2

OS:YearDescription,
  {513d8dda-86cb-442a-b01c-1f7f0e0ac70e}; !- Handle

OS:RadianceParameters,
  {270a96f1-3c86-4b75-a667-cdf22790e2c8}, !- Handle
  1,                                      !- Accumulated Rays per Record
  0,                                      !- Direct Threshold
  1,                                      !- Direct Certainty
  1,                                      !- Direct Jitter
  1,                                      !- Direct Pretest
  6,                                      !- Ambient Bounces VMX
  2,                                      !- Ambient Bounces DMX
  4050,                                   !- Ambient Divisions VMX
  512,                                    !- Ambient Divisions DMX
  256,                                    !- Ambient Supersamples
  0.001,                                  !- Limit Weight VMX
  0.001,                                  !- Limit Weight DMX
  500,                                    !- Klems Sampling Density
  146;                                    !- Sky Discretization Resolution

OS:SimulationControl,
  {2c487a4c-bac9-4ac5-b669-1e49d9da7c2b}, !- Handle
  ,                                       !- Do Zone Sizing Calculation
  ,                                       !- Do System Sizing Calculation
  ,                                       !- Do Plant Sizing Calculation
  No,                                     !- Run Simulation for Sizing Periods
  ,                                       !- Run Simulation for Weather File Run Periods
  0.04,                                   !- Loads Convergence Tolerance Value
  ,                                       !- Temperature Convergence Tolerance Value {deltaC}
  ,                                       !- Solar Distribution
  ,                                       !- Maximum Number of Warmup Days
  2;                                      !- Minimum Number of Warmup Days

OS:Sizing:Parameters,
  {dde5af6f-7923-4600-a28a-7556673a0266}, !- Handle
  1.25,                                   !- Heating Sizing Factor
  1.15;                                   !- Cooling Sizing Factor

OS:ProgramControl,
  {05027a99-f2b3-4aeb-afc6-1425fbb4371d}; !- Handle

OS:Timestep,
  {4ebc9f1e-4707-402e-9844-67eb1ffbd522}, !- Handle
  2;                                      !- Number of Timesteps per Hour

OS:OutputControl:ReportingTolerances,
  {65797aa2-06a9-45fe-b69d-bc6e060399d3}; !- Handle

OS:ConvergenceLimits,
  {9fc11aba-8822-4f3d-970c-46391ba4040d}; !- Handle

OS:ShadowCalculation,
  {ca758bea-4416-4626-9bba-3d8795c79bd6}, !- Handle
  7,                                      !- Calculation Frequency
  15000;                                  !- Maximum Figures in Shadow Overlap Calculations

OS:SurfaceConvectionAlgorithm:Inside,
  {aaabfc36-718a-4ab0-b622-f186ebb45230}, !- Handle
  TARP;                                   !- Algorithm

OS:SurfaceConvectionAlgorithm:Outside,
  {9a0a9f6f-4bbd-4b12-a121-9492a1fcd7d6}, !- Handle
  DOE-2;                                  !- Algorithm

OS:HeatBalanceAlgorithm,
  {9d93e563-e1e0-46d7-9e39-d1c8aceb7212}, !- Handle
  ConductionTransferFunction,             !- Algorithm
  200;                                    !- Surface Temperature Upper Limit {F}

OS:ZoneAirHeatBalanceAlgorithm,
  {8520d93e-310f-4696-9bcd-36228bfdd743}, !- Handle
  AnalyticalSolution;                     !- Algorithm

OS:ZoneAirContaminantBalance,
  {eb5fc3ae-fb22-4160-8fcb-3e3b22b000d3}; !- Handle

OS:ZoneCapacitanceMultiplier:ResearchSpecial,
  {4020ce4f-5a7a-4849-8028-8305d7b751b1}, !- Handle
  ,                                       !- Temperature Capacity Multiplier
  ,                                       !- Humidity Capacity Multiplier
  ;                                       !- Carbon Dioxide Capacity Multiplier

OS:RunPeriod,
  {28df894d-6af9-4fb8-8f56-df1753344aa3}, !- Handle
  Run Period 1,                           !- Name
  1,                                      !- Begin Month
  1,                                      !- Begin Day of Month
  12,                                     !- End Month
  31,                                     !- End Day of Month
  ,                                       !- Use Weather File Holidays and Special Days
  ,                                       !- Use Weather File Daylight Saving Period
  ,                                       !- Apply Weekend Holiday Rule
  ,                                       !- Use Weather File Rain Indicators
  ,                                       !- Use Weather File Snow Indicators
  ;                                       !- Number of Times Runperiod to be Repeated

OS:Building,
  {bf305633-c5a1-4881-9edf-ca5e1a8e1274}, !- Handle
  Building 1,                             !- Name
  ,                                       !- Building Sector Type
  ,                                       !- North Axis {deg}
  ,                                       !- Nominal Floor to Floor Height {m}
  ,                                       !- Space Type Name
  ,                                       !- Default Construction Set Name
  {78802374-ff63-4a49-8415-b459b7bffb82}, !- Default Schedule Set Name
  ,                                       !- Standards Number of Stories
  ,                                       !- Standards Number of Above Ground Stories
  QuickServiceRestaurant;                 !- Standards Building Type

OS:LifeCycleCost:Parameters,
  {231cf8a0-f0e7-4251-a99f-11f0d464e661}, !- Handle
  FEMP,                                   !- Analysis Type
  ,                                       !- Discounting Convention
  ,                                       !- Inflation Approach
  ,                                       !- Real Discount Rate
  ,                                       !- Nominal Discount Rate
  ,                                       !- Inflation
  ,                                       !- Base Date Month
  ,                                       !- Base Date Year
  ,                                       !- Service Date Month
  ,                                       !- Service Date Year
  ,                                       !- Length of Study Period in Years
  ,                                       !- Tax Rate
  ,                                       !- Depreciation Method
  Yes;                                    !- Use NIST Fuel Escalation Rates

OS:Facility,
  {3ba8e45b-b833-44eb-a723-ea6c3946dc96}; !- Handle

OS:SpaceType,
  {2e08a0cf-3ea8-4db0-b5e8-6b448ca9ae11}, !- Handle
  QuickServiceRestaurant|Dining|DOE Ref 2004|ASHRAE 169-2006-5A, !- Name
  {9be92782-547a-438d-a836-9a85fc880826}, !- Default Construction Set Name
  {7657490b-ac87-40c3-9bd2-996c59e39a45}, !- Default Schedule Set Name
  {9fa2cc78-a433-4c6c-9fc0-7ba084736fdf}, !- Group Rendering Name
  {ab8b6eec-23ec-4bda-bbc2-a75a10ac511c}, !- Design Specification Outdoor Air Object Name
  QuickServiceRestaurant,                 !- Standards Building Type
  Dining;                                 !- Standards Space Type

OS:Rendering:Color,
  {9fa2cc78-a433-4c6c-9fc0-7ba084736fdf}, !- Handle
  Rendering Color 1,                      !- Name
  31,                                     !- Rendering Red Value
  169,                                    !- Rendering Green Value
  34;                                     !- Rendering Blue Value

OS:SpaceType,
  {9bb759d2-70ee-4da1-ab1f-f7e3a20ab32a}, !- Handle
  QuickServiceRestaurant|Kitchen|DOE Ref 2004|ASHRAE 169-2006-5A, !- Name
  {9be92782-547a-438d-a836-9a85fc880826}, !- Default Construction Set Name
  {4cfe4976-191f-49ee-981f-52cfeca0b4f4}, !- Default Schedule Set Name
  {b3e1cf7c-8f99-4c3f-8bcc-42727ac812e2}, !- Group Rendering Name
  {c52af2e9-26a4-43f8-8860-6d954b818fb4}, !- Design Specification Outdoor Air Object Name
  QuickServiceRestaurant,                 !- Standards Building Type
  Kitchen;                                !- Standards Space Type

OS:Rendering:Color,
  {b3e1cf7c-8f99-4c3f-8bcc-42727ac812e2}, !- Handle
  Rendering Color 2,                      !- Name
  78,                                     !- Rendering Red Value
  222,                                    !- Rendering Green Value
  133;                                    !- Rendering Blue Value

OS:Schedule:Ruleset,
  {3fe55c7e-3070-4966-bda5-d48411366277}, !- Handle
  0700|2300|QuickServiceRestaurant|default|hoo, !- Name
  {1890c5b6-95c6-42ce-b32c-662a69c962dc}, !- Schedule Type Limits Name
  {e2427cd7-d6dc-4fe3-bb1b-247718b91e3d}, !- Default Day Schedule Name
  {5f651f4b-7d1f-42e5-abe8-47eb8640056d}, !- Summer Design Day Schedule Name
  {c10278e4-53ab-4320-9927-e1385b85021d}; !- Winter Design Day Schedule Name

OS:Schedule:Day,
  {e2427cd7-d6dc-4fe3-bb1b-247718b91e3d}, !- Handle
  0700|2300|QuickServiceRestaurant|default|hoo Schedule Week Day, !- Name
  {1890c5b6-95c6-42ce-b32c-662a69c962dc}, !- Schedule Type Limits Name
  ,                                       !- Interpolate to Timestep
  7,                                      !- Hour 1
  0,                                      !- Minute 1
  0,                                      !- Value Until Time 1
  23,                                     !- Hour 2
  0,                                      !- Minute 2
  1,                                      !- Value Until Time 2
  24,                                     !- Hour 3
  0,                                      !- Minute 3
  0;                                      !- Value Until Time 3

OS:Schedule:Day,
  {f1a92e8a-dd20-420b-81d6-5024e358bc34}, !- Handle
  Schedule Day 2,                         !- Name
  ,                                       !- Schedule Type Limits Name
  ,                                       !- Interpolate to Timestep
  24,                                     !- Hour 1
  0,                                      !- Minute 1
  0;                                      !- Value Until Time 1

OS:Schedule:Day,
  {c10278e4-53ab-4320-9927-e1385b85021d}, !- Handle
  0700|2300|QuickServiceRestaurant|default|hoo Winter Design Day, !- Name
  {1890c5b6-95c6-42ce-b32c-662a69c962dc}, !- Schedule Type Limits Name
  ,                                       !- Interpolate to Timestep
  24,                                     !- Hour 1
  0,                                      !- Minute 1
  0;                                      !- Value Until Time 1

OS:Schedule:Day,
  {e2c00484-9195-48cf-8756-37f508dfdbb6}, !- Handle
  Schedule Day 3,                         !- Name
  ,                                       !- Schedule Type Limits Name
  ,                                       !- Interpolate to Timestep
  24,                                     !- Hour 1
  0,                                      !- Minute 1
  0;                                      !- Value Until Time 1

OS:Schedule:Day,
  {5f651f4b-7d1f-42e5-abe8-47eb8640056d}, !- Handle
  0700|2300|QuickServiceRestaurant|default|hoo Summer Design Day, !- Name
  {1890c5b6-95c6-42ce-b32c-662a69c962dc}, !- Schedule Type Limits Name
  ,                                       !- Interpolate to Timestep
  24,                                     !- Hour 1
  0,                                      !- Minute 1
  1;                                      !- Value Until Time 1

OS:DefaultScheduleSet,
  {78802374-ff63-4a49-8415-b459b7bffb82}, !- Handle
  Building Hours of Operation,            !- Name
  {3fe55c7e-3070-4966-bda5-d48411366277}, !- Hours of Operation Schedule Name
  ,                                       !- Number of People Schedule Name
  ,                                       !- People Activity Level Schedule Name
  ,                                       !- Lighting Schedule Name
  ,                                       !- Electric Equipment Schedule Name
  ,                                       !- Gas Equipment Schedule Name
  ,                                       !- Hot Water Equipment Schedule Name
  ,                                       !- Infiltration Schedule Name
  ,                                       !- Steam Equipment Schedule Name
  ;                                       !- Other Equipment Schedule Name

OS:ScheduleTypeLimits,
  {1890c5b6-95c6-42ce-b32c-662a69c962dc}, !- Handle
  OnOff,                                  !- Name
  0,                                      !- Lower Limit Value {BasedOnField A4}
  1,                                      !- Upper Limit Value {BasedOnField A4}
  Discrete,                               !- Numeric Type
  Availability;                           !- Unit Type

OS:Schedule:Ruleset,
  {68fd9571-6016-44f7-a1e8-84fd61afaea9}, !- Handle
  0700|2300|QuickServiceRestaurant|default|htg_setpoint, !- Name
  {83d45c27-6876-4e13-829b-edbe7ab54609}, !- Schedule Type Limits Name
  {092685fa-e1f5-4cdd-a14d-5a6260ea2b50}, !- Default Day Schedule Name
  {73e170ec-e87b-4b48-8a88-b156bd0337c4}, !- Summer Design Day Schedule Name
  {2867bccc-cdb5-4971-be09-a5f217131c97}; !- Winter Design Day Schedule Name

OS:ScheduleTypeLimits,
  {83d45c27-6876-4e13-829b-edbe7ab54609}, !- Handle
  Thermostat Heating Setpoint Schedule Type Limits, !- Name
  0,                                      !- Lower Limit Value {BasedOnField A4}
  100,                                    !- Upper Limit Value {BasedOnField A4}
  Continuous,                             !- Numeric Type
  Temperature;                            !- Unit Type

OS:Schedule:Day,
  {092685fa-e1f5-4cdd-a14d-5a6260ea2b50}, !- Handle
  0700|2300|QuickServiceRestaurant|default|htg_setpoint |default, !- Name
  {83d45c27-6876-4e13-829b-edbe7ab54609}, !- Schedule Type Limits Name
  ,                                       !- Interpolate to Timestep
  24,                                     !- Hour 1
  0,                                      !- Minute 1
  21.0000000000001;                       !- Value Until Time 1

OS:Schedule:Day,
  {73e170ec-e87b-4b48-8a88-b156bd0337c4}, !- Handle
  0700|2300|QuickServiceRestaurant|default|htg_setpoint Summer Design Day, !- Name
  {83d45c27-6876-4e13-829b-edbe7ab54609}, !- Schedule Type Limits Name
  ,                                       !- Interpolate to Timestep
  24,                                     !- Hour 1
  0,                                      !- Minute 1
  21.0000000000001;                       !- Value Until Time 1

OS:Schedule:Day,
  {2867bccc-cdb5-4971-be09-a5f217131c97}, !- Handle
  0700|2300|QuickServiceRestaurant|default|htg_setpoint Winter Design Day, !- Name
  {83d45c27-6876-4e13-829b-edbe7ab54609}, !- Schedule Type Limits Name
  ,                                       !- Interpolate to Timestep
  24,                                     !- Hour 1
  0,                                      !- Minute 1
  21.0000000000001;                       !- Value Until Time 1

OS:Schedule:Ruleset,
  {7b5cb05b-8570-4a70-9465-c8dfb622763b}, !- Handle
  0700|2300|QuickServiceRestaurant|default|elec_equip, !- Name
  {78979330-94e0-44a0-9491-f0969a7909ea}, !- Schedule Type Limits Name
  {940c0d93-dafe-49f8-9385-804cd4a98eda}, !- Default Day Schedule Name
  {77a1e4f4-65b6-4dcb-9bd8-f0f329c4bce5}, !- Summer Design Day Schedule Name
  {e28e8c82-e02a-4136-be58-1619aff3a0e1}; !- Winter Design Day Schedule Name

OS:ScheduleTypeLimits,
  {78979330-94e0-44a0-9491-f0969a7909ea}, !- Handle
  Equipment Schedule Type Limits,         !- Name
  0,                                      !- Lower Limit Value {BasedOnField A4}
  1,                                      !- Upper Limit Value {BasedOnField A4}
  Continuous,                             !- Numeric Type
  Dimensionless;                          !- Unit Type

OS:Schedule:Day,
  {940c0d93-dafe-49f8-9385-804cd4a98eda}, !- Handle
  0700|2300|QuickServiceRestaurant|default|elec_equip |default, !- Name
  {78979330-94e0-44a0-9491-f0969a7909ea}, !- Schedule Type Limits Name
  ,                                       !- Interpolate to Timestep
  6,                                      !- Hour 1
  0,                                      !- Minute 1
  0.1,                                    !- Value Until Time 1
  8,                                      !- Hour 2
  0,                                      !- Minute 2
  0.35,                                   !- Value Until Time 2
  10,                                     !- Hour 3
  0,                                      !- Minute 3
  0.25,                                   !- Value Until Time 3
  14,                                     !- Hour 4
  0,                                      !- Minute 4
  0.35,                                   !- Value Until Time 4
  17,                                     !- Hour 5
  0,                                      !- Minute 5
  0.25,                                   !- Value Until Time 5
  20,                                     !- Hour 6
  0,                                      !- Minute 6
  0.35,                                   !- Value Until Time 6
  24,                                     !- Hour 7
  0,                                      !- Minute 7
  0.25;                                   !- Value Until Time 7

OS:Schedule:Day,
  {77a1e4f4-65b6-4dcb-9bd8-f0f329c4bce5}, !- Handle
  0700|2300|QuickServiceRestaurant|default|elec_equip Summer Design Day, !- Name
  {78979330-94e0-44a0-9491-f0969a7909ea}, !- Schedule Type Limits Name
  ,                                       !- Interpolate to Timestep
  6,                                      !- Hour 1
  0,                                      !- Minute 1
  0.1,                                    !- Value Until Time 1
  8,                                      !- Hour 2
  0,                                      !- Minute 2
  1,                                      !- Value Until Time 2
  10,                                     !- Hour 3
  0,                                      !- Minute 3
  0.25,                                   !- Value Until Time 3
  14,                                     !- Hour 4
  0,                                      !- Minute 4
  1,                                      !- Value Until Time 4
  17,                                     !- Hour 5
  0,                                      !- Minute 5
  0.25,                                   !- Value Until Time 5
  20,                                     !- Hour 6
  0,                                      !- Minute 6
  1,                                      !- Value Until Time 6
  24,                                     !- Hour 7
  0,                                      !- Minute 7
  0.25;                                   !- Value Until Time 7

OS:Schedule:Day,
  {e28e8c82-e02a-4136-be58-1619aff3a0e1}, !- Handle
  0700|2300|QuickServiceRestaurant|default|elec_equip Winter Design Day, !- Name
  {78979330-94e0-44a0-9491-f0969a7909ea}, !- Schedule Type Limits Name
  ,                                       !- Interpolate to Timestep
  24,                                     !- Hour 1
  0,                                      !- Minute 1
  0.1;                                    !- Value Until Time 1

OS:Schedule:Ruleset,
  {9f62cac1-9279-471f-a321-6dc8eb6c4fd8}, !- Handle
  0700|2300|QuickServiceRestaurant|default|work_eff, !- Name
  {bab2c2dc-536d-47e2-817d-1abe236eed00}, !- Schedule Type Limits Name
  {b9a8a5ec-3b7e-42bb-8c95-8eb6b39ac863}, !- Default Day Schedule Name
  {08adfc94-a4cd-449a-a955-bb61cbe66a0b}, !- Summer Design Day Schedule Name
  {df34ef59-d4e2-4f8d-ae1f-ffaa28cae086}; !- Winter Design Day Schedule Name

OS:ScheduleTypeLimits,
  {bab2c2dc-536d-47e2-817d-1abe236eed00}, !- Handle
  Fraction Schedule Type Limits,          !- Name
  0,                                      !- Lower Limit Value {BasedOnField A4}
  1,                                      !- Upper Limit Value {BasedOnField A4}
  Continuous,                             !- Numeric Type
  Dimensionless;                          !- Unit Type

OS:Schedule:Day,
  {b9a8a5ec-3b7e-42bb-8c95-8eb6b39ac863}, !- Handle
  0700|2300|QuickServiceRestaurant|default|work_eff |default, !- Name
  {bab2c2dc-536d-47e2-817d-1abe236eed00}, !- Schedule Type Limits Name
  ,                                       !- Interpolate to Timestep
  24,                                     !- Hour 1
  0,                                      !- Minute 1
  0;                                      !- Value Until Time 1

OS:Schedule:Day,
  {08adfc94-a4cd-449a-a955-bb61cbe66a0b}, !- Handle
  0700|2300|QuickServiceRestaurant|default|work_eff Summer Design Day, !- Name
  {bab2c2dc-536d-47e2-817d-1abe236eed00}, !- Schedule Type Limits Name
  ,                                       !- Interpolate to Timestep
  24,                                     !- Hour 1
  0,                                      !- Minute 1
  0;                                      !- Value Until Time 1

OS:Schedule:Day,
  {df34ef59-d4e2-4f8d-ae1f-ffaa28cae086}, !- Handle
  0700|2300|QuickServiceRestaurant|default|work_eff Winter Design Day, !- Name
  {bab2c2dc-536d-47e2-817d-1abe236eed00}, !- Schedule Type Limits Name
  ,                                       !- Interpolate to Timestep
  24,                                     !- Hour 1
  0,                                      !- Minute 1
  0;                                      !- Value Until Time 1

OS:Schedule:Ruleset,
  {b1dd4f41-31be-4bd2-aedf-8a502e4d9e8f}, !- Handle
  0700|2300|QuickServiceRestaurant|default|hvac, !- Name
  {5c543657-65d4-4570-9baf-673a49eec22c}, !- Schedule Type Limits Name
  {645f3860-ad47-43d6-9bd0-351ab869ee0b}, !- Default Day Schedule Name
  {1a12ba28-1281-4657-ad3b-bd9b077cea57}, !- Summer Design Day Schedule Name
  {adbf5747-7d38-4f97-8684-62e754a21f2f}; !- Winter Design Day Schedule Name

OS:ScheduleTypeLimits,
  {5c543657-65d4-4570-9baf-673a49eec22c}, !- Handle
  HVAC Operation Schedule Type Limits,    !- Name
  0,                                      !- Lower Limit Value {BasedOnField A4}
  1,                                      !- Upper Limit Value {BasedOnField A4}
  Discrete,                               !- Numeric Type
  Availability;                           !- Unit Type

OS:Schedule:Day,
  {645f3860-ad47-43d6-9bd0-351ab869ee0b}, !- Handle
  0700|2300|QuickServiceRestaurant|default|hvac |default, !- Name
  {5c543657-65d4-4570-9baf-673a49eec22c}, !- Schedule Type Limits Name
  ,                                       !- Interpolate to Timestep
  1,                                      !- Hour 1
  0,                                      !- Minute 1
  1,                                      !- Value Until Time 1
  5,                                      !- Hour 2
  0,                                      !- Minute 2
  0,                                      !- Value Until Time 2
  24,                                     !- Hour 3
  0,                                      !- Minute 3
  1;                                      !- Value Until Time 3

OS:Schedule:Day,
  {1a12ba28-1281-4657-ad3b-bd9b077cea57}, !- Handle
  0700|2300|QuickServiceRestaurant|default|hvac Summer Design Day, !- Name
  {5c543657-65d4-4570-9baf-673a49eec22c}, !- Schedule Type Limits Name
  ,                                       !- Interpolate to Timestep
  1,                                      !- Hour 1
  0,                                      !- Minute 1
  1,                                      !- Value Until Time 1
  5,                                      !- Hour 2
  0,                                      !- Minute 2
  0,                                      !- Value Until Time 2
  24,                                     !- Hour 3
  0,                                      !- Minute 3
  1;                                      !- Value Until Time 3

OS:Schedule:Day,
  {adbf5747-7d38-4f97-8684-62e754a21f2f}, !- Handle
  0700|2300|QuickServiceRestaurant|default|hvac Winter Design Day, !- Name
  {5c543657-65d4-4570-9baf-673a49eec22c}, !- Schedule Type Limits Name
  ,                                       !- Interpolate to Timestep
  1,                                      !- Hour 1
  0,                                      !- Minute 1
  1,                                      !- Value Until Time 1
  5,                                      !- Hour 2
  0,                                      !- Minute 2
  0,                                      !- Value Until Time 2
  24,                                     !- Hour 3
  0,                                      !- Minute 3
  1;                                      !- Value Until Time 3

OS:Schedule:Ruleset,
  {cdf3fbf5-08c4-4f04-b8cb-79abc22a90c0}, !- Handle
  0700|2300|QuickServiceRestaurant|default|ext_lighting, !- Name
  {e47b0ef5-d02c-48bd-b440-e599b1cbca64}, !- Schedule Type Limits Name
  {98c42c6d-1e63-4052-9e37-dd3ca1ed0f96}, !- Default Day Schedule Name
  {aedf20df-450d-49e1-819c-f451817515f5}, !- Summer Design Day Schedule Name
  {f96ad1e6-0569-41a7-8e53-fe35c227edac}; !- Winter Design Day Schedule Name

OS:ScheduleTypeLimits,
  {e47b0ef5-d02c-48bd-b440-e599b1cbca64}, !- Handle
  Lights Schedule Type Limits,            !- Name
  0,                                      !- Lower Limit Value {BasedOnField A4}
  1,                                      !- Upper Limit Value {BasedOnField A4}
  Continuous,                             !- Numeric Type
  Dimensionless;                          !- Unit Type

OS:Schedule:Day,
  {98c42c6d-1e63-4052-9e37-dd3ca1ed0f96}, !- Handle
  0700|2300|QuickServiceRestaurant|default|ext_lighting |default, !- Name
  {e47b0ef5-d02c-48bd-b440-e599b1cbca64}, !- Schedule Type Limits Name
  ,                                       !- Interpolate to Timestep
  24,                                     !- Hour 1
  0,                                      !- Minute 1
  1;                                      !- Value Until Time 1

OS:Schedule:Day,
  {aedf20df-450d-49e1-819c-f451817515f5}, !- Handle
  0700|2300|QuickServiceRestaurant|default|ext_lighting Summer Design Day, !- Name
  {e47b0ef5-d02c-48bd-b440-e599b1cbca64}, !- Schedule Type Limits Name
  ,                                       !- Interpolate to Timestep
  24,                                     !- Hour 1
  0,                                      !- Minute 1
  1;                                      !- Value Until Time 1

OS:Schedule:Day,
  {f96ad1e6-0569-41a7-8e53-fe35c227edac}, !- Handle
  0700|2300|QuickServiceRestaurant|default|ext_lighting Winter Design Day, !- Name
  {e47b0ef5-d02c-48bd-b440-e599b1cbca64}, !- Schedule Type Limits Name
  ,                                       !- Interpolate to Timestep
  24,                                     !- Hour 1
  0,                                      !- Minute 1
  1;                                      !- Value Until Time 1

OS:Schedule:Ruleset,
  {547a097c-667d-4727-890f-c9108131c2fa}, !- Handle
  0700|2300|QuickServiceRestaurant|default|air_velocity, !- Name
  {f0ca46d3-3da9-4ea0-b975-f01e18b9463c}, !- Schedule Type Limits Name
  {3b95382b-6919-42b2-91db-80742f1dc64d}, !- Default Day Schedule Name
  {57870d9c-661b-4690-a199-d008bd1f82c6}, !- Summer Design Day Schedule Name
  {756a650c-5625-4907-8a74-172784f2ceb7}; !- Winter Design Day Schedule Name

OS:ScheduleTypeLimits,
  {f0ca46d3-3da9-4ea0-b975-f01e18b9463c}, !- Handle
  Dimensionless Schedule Type Limits,     !- Name
  ,                                       !- Lower Limit Value {BasedOnField A4}
  ,                                       !- Upper Limit Value {BasedOnField A4}
  Continuous,                             !- Numeric Type
  Dimensionless;                          !- Unit Type

OS:Schedule:Day,
  {3b95382b-6919-42b2-91db-80742f1dc64d}, !- Handle
  0700|2300|QuickServiceRestaurant|default|air_velocity |default, !- Name
  {f0ca46d3-3da9-4ea0-b975-f01e18b9463c}, !- Schedule Type Limits Name
  ,                                       !- Interpolate to Timestep
  24,                                     !- Hour 1
  0,                                      !- Minute 1
  0.200152;                               !- Value Until Time 1

OS:Schedule:Day,
  {57870d9c-661b-4690-a199-d008bd1f82c6}, !- Handle
  0700|2300|QuickServiceRestaurant|default|air_velocity Summer Design Day, !- Name
  {f0ca46d3-3da9-4ea0-b975-f01e18b9463c}, !- Schedule Type Limits Name
  ,                                       !- Interpolate to Timestep
  24,                                     !- Hour 1
  0,                                      !- Minute 1
  0.200152;                               !- Value Until Time 1

OS:Schedule:Day,
  {756a650c-5625-4907-8a74-172784f2ceb7}, !- Handle
  0700|2300|QuickServiceRestaurant|default|air_velocity Winter Design Day, !- Name
  {f0ca46d3-3da9-4ea0-b975-f01e18b9463c}, !- Schedule Type Limits Name
  ,                                       !- Interpolate to Timestep
  24,                                     !- Hour 1
  0,                                      !- Minute 1
  0.200152;                               !- Value Until Time 1

OS:Schedule:Ruleset,
  {1a5133fa-39b9-4e48-bb40-f98463dd6141}, !- Handle
  0700|2300|QuickServiceRestaurant|default|rh, !- Name
  {f0ca46d3-3da9-4ea0-b975-f01e18b9463c}, !- Schedule Type Limits Name
  {03be464b-e93f-4e4b-8d32-37832abf631a}, !- Default Day Schedule Name