
OS:Version,
  {582d31a5-ea06-4b16-a17c-b45c517748e3}, !- Handle
  1.5.5;                                  !- Version Identifier

OS:ClimateZones,
  {135edfab-17e7-40db-a436-27d385a8cd6d}, !- Handle
  ,                                       !- Active Institution
  ,                                       !- Active Year
  ASHRAE,                                 !- Climate Zone Institution Name 1
  ANSI/ASHRAE Standard 169,               !- Climate Zone Document Name 1
  2006,                                   !- Climate Zone Document Year 1
  ,                                       !- Climate Zone Value 1
  CEC,                                    !- Climate Zone Institution Name 2
  California Climate Zone Descriptions,   !- Climate Zone Document Name 2
  1995,                                   !- Climate Zone Document Year 2
  ;                                       !- Climate Zone Value 2

OS:YearDescription,
  {513d8dda-86cb-442a-b01c-1f7f0e0ac70e}; !- Handle

OS:RadianceParameters,
  {270a96f1-3c86-4b75-a667-cdf22790e2c8}, !- Handle
  1,                                      !- Accumulated Rays per Record
  0,                                      !- Direct Threshold
  1,                                      !- Direct Certainty
  1,                                      !- Direct Jitter
  1,                                      !- Direct Pretest
  6,                                      !- Ambient Bounces VMX
  2,                                      !- Ambient Bounces DMX
  4050,                                   !- Ambient Divisions VMX
  512,                                    !- Ambient Divisions DMX
  256,                                    !- Ambient Supersamples
  0.001,                                  !- Limit Weight VMX
  0.001,                                  !- Limit Weight DMX
  500,                                    !- Klems Sampling Density
  146;                                    !- Sky Discretization Resolution

OS:SimulationControl,
  {2c487a4c-bac9-4ac5-b669-1e49d9da7c2b}, !- Handle
  ,                                       !- Do Zone Sizing Calculation
  ,                                       !- Do System Sizing Calculation
  ,                                       !- Do Plant Sizing Calculation
  No,                                     !- Run Simulation for Sizing Periods
  ,                                       !- Run Simulation for Weather File Run Periods
  0.04,                                   !- Loads Convergence Tolerance Value
  ,                                       !- Temperature Convergence Tolerance Value {deltaC}
  ,                                       !- Solar Distribution
  ,                                       !- Maximum Number of Warmup Days
  2;                                      !- Minimum Number of Warmup Days

OS:Sizing:Parameters,
  {dde5af6f-7923-4600-a28a-7556673a0266}, !- Handle
  1.25,                                   !- Heating Sizing Factor
  1.15;                                   !- Cooling Sizing Factor

OS:ProgramControl,
  {05027a99-f2b3-4aeb-afc6-1425fbb4371d}; !- Handle

OS:Timestep,
  {4ebc9f1e-4707-402e-9844-67eb1ffbd522}, !- Handle
  2;                                      !- Number of Timesteps per Hour

OS:OutputControl:ReportingTolerances,
  {65797aa2-06a9-45fe-b69d-bc6e060399d3}; !- Handle

OS:ConvergenceLimits,
  {9fc11aba-8822-4f3d-970c-46391ba4040d}; !- Handle

OS:ShadowCalculation,
  {ca758bea-4416-4626-9bba-3d8795c79bd6}, !- Handle
  7,                                      !- Calculation Frequency
  15000;                                  !- Maximum Figures in Shadow Overlap Calculations

OS:SurfaceConvectionAlgorithm:Inside,
  {aaabfc36-718a-4ab0-b622-f186ebb45230}, !- Handle
  TARP;                                   !- Algorithm

OS:SurfaceConvectionAlgorithm:Outside,
  {9a0a9f6f-4bbd-4b12-a121-9492a1fcd7d6}, !- Handle
  DOE-2;                                  !- Algorithm

OS:HeatBalanceAlgorithm,
  {9d93e563-e1e0-46d7-9e39-d1c8aceb7212}, !- Handle
  ConductionTransferFunction,             !- Algorithm
  200;                                    !- Surface Temperature Upper Limit {F}

OS:ZoneAirHeatBalanceAlgorithm,
  {8520d93e-310f-4696-9bcd-36228bfdd743}, !- Handle
  AnalyticalSolution;                     !- Algorithm

OS:ZoneAirContaminantBalance,
  {eb5fc3ae-fb22-4160-8fcb-3e3b22b000d3}; !- Handle

OS:ZoneCapacitanceMultiplier:ResearchSpecial,
  {4020ce4f-5a7a-4849-8028-8305d7b751b1}, !- Handle
  ,                                       !- Temperature Capacity Multiplier
  ,                                       !- Humidity Capacity Multiplier
  ;                                       !- Carbon Dioxide Capacity Multiplier

OS:RunPeriod,
  {28df894d-6af9-4fb8-8f56-df1753344aa3}, !- Handle
  Run Period 1,                           !- Name
  1,                                      !- Begin Month
  1,                                      !- Begin Day of Month
  12,                                     !- End Month
  31,                                     !- End Day of Month
  ,                                       !- Use Weather File Holidays and Special Days
  ,                                       !- Use Weather File Daylight Saving Period
  ,                                       !- Apply Weekend Holiday Rule
  ,                                       !- Use Weather File Rain Indicators
  ,                                       !- Use Weather File Snow Indicators
  ;                                       !- Number of Times Runperiod to be Repeated

OS:Building,
  {bf305633-c5a1-4881-9edf-ca5e1a8e1274}, !- Handle
  Building 1,                             !- Name
  ,                                       !- Building Sector Type
  ,                                       !- North Axis {deg}
  ,                                       !- Nominal Floor to Floor Height {m}
  ,                                       !- Space Type Name
  ,                                       !- Default Construction Set Name
  {a87816d9-0a12-41e7-97f6-6ec592bc148a}, !- Default Schedule Set Name
  ,                                       !- Standards Number of Stories
  ,                                       !- Standards Number of Above Ground Stories
  QuickServiceRestaurant;                 !- Standards Building Type

OS:LifeCycleCost:Parameters,
  {231cf8a0-f0e7-4251-a99f-11f0d464e661}, !- Handle
  FEMP,                                   !- Analysis Type
  ,                                       !- Discounting Convention
  ,                                       !- Inflation Approach
  ,                                       !- Real Discount Rate
  ,                                       !- Nominal Discount Rate
  ,                                       !- Inflation
  ,                                       !- Base Date Month
  ,                                       !- Base Date Year
  ,                                       !- Service Date Month
  ,                                       !- Service Date Year
  ,                                       !- Length of Study Period in Years
  ,                                       !- Tax Rate
  ,                                       !- Depreciation Method
  Yes;                                    !- Use NIST Fuel Escalation Rates

OS:Facility,
  {3ba8e45b-b833-44eb-a723-ea6c3946dc96}; !- Handle

OS:SpaceType,
  {a0ee4d7b-c371-4e1d-82a7-df7c6d1da9e6}, !- Handle
  QuickServiceRestaurant|Dining|DOE Ref Pre-1980|ASHRAE 169-2006-5A, !- Name
  {2c3e60df-5d37-4238-9daa-b3ba4e081379}, !- Default Construction Set Name
  {e86a778f-d137-482d-bdb8-dee7cd3453d3}, !- Default Schedule Set Name
  {a1915243-9882-4d97-a45c-fd324112f5cf}, !- Group Rendering Name
  {faddb0c0-8a17-4387-bb92-04027da97d24}, !- Design Specification Outdoor Air Object Name
  QuickServiceRestaurant,                 !- Standards Building Type
  Dining;                                 !- Standards Space Type

OS:Rendering:Color,
  {a1915243-9882-4d97-a45c-fd324112f5cf}, !- Handle
  Rendering Color 1,                      !- Name
  31,                                     !- Rendering Red Value
  169,                                    !- Rendering Green Value
  34;                                     !- Rendering Blue Value

OS:SpaceType,
  {382a6d13-ecf4-4929-9c17-2d532852dbca}, !- Handle
  QuickServiceRestaurant|Kitchen|DOE Ref Pre-1980|ASHRAE 169-2006-5A, !- Name
  {2c3e60df-5d37-4238-9daa-b3ba4e081379}, !- Default Construction Set Name
  {add2db24-d2c8-4462-8d88-754f12c171bf}, !- Default Schedule Set Name
  {402c50b1-a783-40b1-8b5c-dff1f3482695}, !- Group Rendering Name
  {d5b602c7-74fe-47b9-b093-359b039c48d0}, !- Design Specification Outdoor Air Object Name
  QuickServiceRestaurant,                 !- Standards Building Type
  Kitchen;                                !- Standards Space Type

OS:Rendering:Color,
  {402c50b1-a783-40b1-8b5c-dff1f3482695}, !- Handle
  Rendering Color 2,                      !- Name
  78,                                     !- Rendering Red Value
  222,                                    !- Rendering Green Value
  133;                                    !- Rendering Blue Value

OS:Schedule:Ruleset,
  {20183a33-4e53-4db7-ac8d-e76dbfeea618}, !- Handle
  0700|2300|QuickServiceRestaurant|default|hoo, !- Name
  {47e7f010-e5c3-4647-a4ea-5ce26c3e70ea}, !- Schedule Type Limits Name
  {83f5ca39-06ad-48c4-bf7b-0cae668ca68b}, !- Default Day Schedule Name
  {f4bc114b-40c3-4ddb-8034-9ec8e1917ce5}, !- Summer Design Day Schedule Name
  {c72346fb-621b-41e6-b498-8a97d5e1630d}; !- Winter Design Day Schedule Name

OS:Schedule:Day,
  {83f5ca39-06ad-48c4-bf7b-0cae668ca68b}, !- Handle
  0700|2300|QuickServiceRestaurant|default|hoo Schedule Week Day, !- Name
  {47e7f010-e5c3-4647-a4ea-5ce26c3e70ea}, !- Schedule Type Limits Name
  ,                                       !- Interpolate to Timestep
  7,                                      !- Hour 1
  0,                                      !- Minute 1
  0,                                      !- Value Until Time 1
  23,                                     !- Hour 2
  0,                                      !- Minute 2
  1,                                      !- Value Until Time 2
  24,                                     !- Hour 3
  0,                                      !- Minute 3
  0;                                      !- Value Until Time 3

OS:Schedule:Day,
  {b1fbcfe2-9d54-44b4-a54f-0c3c46a0847e}, !- Handle
  Schedule Day 2,                         !- Name
  ,                                       !- Schedule Type Limits Name
  ,                                       !- Interpolate to Timestep
  24,                                     !- Hour 1
  0,                                      !- Minute 1
  0;                                      !- Value Until Time 1

OS:Schedule:Day,
  {c72346fb-621b-41e6-b498-8a97d5e1630d}, !- Handle
  0700|2300|QuickServiceRestaurant|default|hoo Winter Design Day, !- Name
  {47e7f010-e5c3-4647-a4ea-5ce26c3e70ea}, !- Schedule Type Limits Name
  ,                                       !- Interpolate to Timestep
  24,                                     !- Hour 1
  0,                                      !- Minute 1
  0;                                      !- Value Until Time 1

OS:Schedule:Day,
  {d404b649-11a6-4408-a048-3bf6642774ee}, !- Handle
  Schedule Day 3,                         !- Name
  ,                                       !- Schedule Type Limits Name
  ,                                       !- Interpolate to Timestep
  24,                                     !- Hour 1
  0,                                      !- Minute 1
  0;                                      !- Value Until Time 1

OS:Schedule:Day,
  {f4bc114b-40c3-4ddb-8034-9ec8e1917ce5}, !- Handle
  0700|2300|QuickServiceRestaurant|default|hoo Summer Design Day, !- Name
  {47e7f010-e5c3-4647-a4ea-5ce26c3e70ea}, !- Schedule Type Limits Name
  ,                                       !- Interpolate to Timestep
  24,                                     !- Hour 1
  0,                                      !- Minute 1
  1;                                      !- Value Until Time 1

OS:DefaultScheduleSet,
  {a87816d9-0a12-41e7-97f6-6ec592bc148a}, !- Handle
  Building Hours of Operation,            !- Name
  {20183a33-4e53-4db7-ac8d-e76dbfeea618}, !- Hours of Operation Schedule Name
  ,                                       !- Number of People Schedule Name
  ,                                       !- People Activity Level Schedule Name
  ,                                       !- Lighting Schedule Name
  ,                                       !- Electric Equipment Schedule Name
  ,                                       !- Gas Equipment Schedule Name
  ,                                       !- Hot Water Equipment Schedule Name
  ,                                       !- Infiltration Schedule Name
  ,                                       !- Steam Equipment Schedule Name
  ;                                       !- Other Equipment Schedule Name

OS:ScheduleTypeLimits,
  {47e7f010-e5c3-4647-a4ea-5ce26c3e70ea}, !- Handle
  OnOff,                                  !- Name
  0,                                      !- Lower Limit Value {BasedOnField A4}
  1,                                      !- Upper Limit Value {BasedOnField A4}
  Discrete,                               !- Numeric Type
  Availability;                           !- Unit Type

OS:Schedule:Ruleset,
  {d3014ffb-fa52-491f-9c93-73a2bf3847aa}, !- Handle
  0700|2300|QuickServiceRestaurant|default|htg_setpoint, !- Name
  {0a204862-73ca-4257-aa67-625d41079e74}, !- Schedule Type Limits Name
  {f894c84f-1dd1-44a5-96a2-2e302e322ac4}, !- Default Day Schedule Name
  {0fde9f86-034b-4156-b2fb-ce3b90d9bea0}, !- Summer Design Day Schedule Name
  {ad531e21-4fa9-49e4-8948-dcc170b692c1}; !- Winter Design Day Schedule Name

OS:ScheduleTypeLimits,
  {0a204862-73ca-4257-aa67-625d41079e74}, !- Handle
  Thermostat Heating Setpoint Schedule Type Limits, !- Name
  0,                                      !- Lower Limit Value {BasedOnField A4}
  100,                                    !- Upper Limit Value {BasedOnField A4}
  Continuous,                             !- Numeric Type
  Temperature;                            !- Unit Type

OS:Schedule:Day,
  {f894c84f-1dd1-44a5-96a2-2e302e322ac4}, !- Handle
  0700|2300|QuickServiceRestaurant|default|htg_setpoint |default, !- Name
  {0a204862-73ca-4257-aa67-625d41079e74}, !- Schedule Type Limits Name
  ,                                       !- Interpolate to Timestep
  24,                                     !- Hour 1
  0,                                      !- Minute 1
  21.0000000000001;                       !- Value Until Time 1

OS:Schedule:Day,
  {0fde9f86-034b-4156-b2fb-ce3b90d9bea0}, !- Handle
  0700|2300|QuickServiceRestaurant|default|htg_setpoint Summer Design Day, !- Name
  {0a204862-73ca-4257-aa67-625d41079e74}, !- Schedule Type Limits Name
  ,                                       !- Interpolate to Timestep
  24,                                     !- Hour 1
  0,                                      !- Minute 1
  21.0000000000001;                       !- Value Until Time 1

OS:Schedule:Day,
  {ad531e21-4fa9-49e4-8948-dcc170b692c1}, !- Handle
  0700|2300|QuickServiceRestaurant|default|htg_setpoint Winter Design Day, !- Name
  {0a204862-73ca-4257-aa67-625d41079e74}, !- Schedule Type Limits Name
  ,                                       !- Interpolate to Timestep
  24,                                     !- Hour 1
  0,                                      !- Minute 1
  21.0000000000001;                       !- Value Until Time 1

OS:Schedule:Ruleset,
  {773c1211-f388-4be5-917f-2072262b7d63}, !- Handle
  0700|2300|QuickServiceRestaurant|default|elec_equip, !- Name
  {34c46d87-7e79-4ed2-b3ec-3ab851f329fe}, !- Schedule Type Limits Name
  {85694524-1ed5-4cbe-afac-b64f3705e51e}, !- Default Day Schedule Name
  {ee2b7e27-a825-4d2b-bc4a-8c3fe050ebb6}, !- Summer Design Day Schedule Name
  {9189de02-6281-430c-b068-50f0d8b18ff2}; !- Winter Design Day Schedule Name

OS:ScheduleTypeLimits,
  {34c46d87-7e79-4ed2-b3ec-3ab851f329fe}, !- Handle
  Equipment Schedule Type Limits,         !- Name
  0,                                      !- Lower Limit Value {BasedOnField A4}
  1,                                      !- Upper Limit Value {BasedOnField A4}
  Continuous,                             !- Numeric Type
  Dimensionless;                          !- Unit Type

OS:Schedule:Day,
  {85694524-1ed5-4cbe-afac-b64f3705e51e}, !- Handle
  0700|2300|QuickServiceRestaurant|default|elec_equip |default, !- Name
  {34c46d87-7e79-4ed2-b3ec-3ab851f329fe}, !- Schedule Type Limits Name
  ,                                       !- Interpolate to Timestep
  6,                                      !- Hour 1
  0,                                      !- Minute 1
  0.1,                                    !- Value Until Time 1
  8,                                      !- Hour 2
  0,                                      !- Minute 2
  0.35,                                   !- Value Until Time 2
  10,                                     !- Hour 3
  0,                                      !- Minute 3
  0.25,                                   !- Value Until Time 3
  14,                                     !- Hour 4
  0,                                      !- Minute 4
  0.35,                                   !- Value Until Time 4
  17,                                     !- Hour 5
  0,                                      !- Minute 5
  0.25,                                   !- Value Until Time 5
  20,                                     !- Hour 6
  0,                                      !- Minute 6
  0.35,                                   !- Value Until Time 6
  24,                                     !- Hour 7
  0,                                      !- Minute 7
  0.25;                                   !- Value Until Time 7

OS:Schedule:Day,
  {ee2b7e27-a825-4d2b-bc4a-8c3fe050ebb6}, !- Handle
  0700|2300|QuickServiceRestaurant|default|elec_equip Summer Design Day, !- Name
  {34c46d87-7e79-4ed2-b3ec-3ab851f329fe}, !- Schedule Type Limits Name
  ,                                       !- Interpolate to Timestep
  6,                                      !- Hour 1
  0,                                      !- Minute 1
  0.1,                                    !- Value Until Time 1
  8,                                      !- Hour 2
  0,                                      !- Minute 2
  1,                                      !- Value Until Time 2
  10,                                     !- Hour 3
  0,                                      !- Minute 3
  0.25,                                   !- Value Until Time 3
  14,                                     !- Hour 4
  0,                                      !- Minute 4
  1,                                      !- Value Until Time 4
  17,                                     !- Hour 5
  0,                                      !- Minute 5
  0.25,                                   !- Value Until Time 5
  20,                                     !- Hour 6
  0,                                      !- Minute 6
  1,                                      !- Value Until Time 6
  24,                                     !- Hour 7
  0,                                      !- Minute 7
  0.25;                                   !- Value Until Time 7

OS:Schedule:Day,
  {9189de02-6281-430c-b068-50f0d8b18ff2}, !- Handle
  0700|2300|QuickServiceRestaurant|default|elec_equip Winter Design Day, !- Name
  {34c46d87-7e79-4ed2-b3ec-3ab851f329fe}, !- Schedule Type Limits Name
  ,                                       !- Interpolate to Timestep
  24,                                     !- Hour 1
  0,                                      !- Minute 1
  0.1;                                    !- Value Until Time 1

OS:Schedule:Ruleset,
  {93399058-24c5-492c-8643-83b2d0714bb3}, !- Handle
  0700|2300|QuickServiceRestaurant|default|work_eff, !- Name
  {c69ebc81-395e-426c-8404-a211384cd74b}, !- Schedule Type Limits Name
  {6ba413ce-69eb-4533-85b3-d5bd56d109f7}, !- Default Day Schedule Name
  {0c36586b-18ee-4ebc-b6fd-d1452dd7a4c8}, !- Summer Design Day Schedule Name
  {b6821238-c492-491e-9921-d8aed2e70685}; !- Winter Design Day Schedule Name

OS:ScheduleTypeLimits,
  {c69ebc81-395e-426c-8404-a211384cd74b}, !- Handle
  Fraction Schedule Type Limits,          !- Name
  0,                                      !- Lower Limit Value {BasedOnField A4}
  1,                                      !- Upper Limit Value {BasedOnField A4}
  Continuous,                             !- Numeric Type
  Dimensionless;                          !- Unit Type

OS:Schedule:Day,
  {6ba413ce-69eb-4533-85b3-d5bd56d109f7}, !- Handle
  0700|2300|QuickServiceRestaurant|default|work_eff |default, !- Name
  {c69ebc81-395e-426c-8404-a211384cd74b}, !- Schedule Type Limits Name
  ,                                       !- Interpolate to Timestep
  24,                                     !- Hour 1
  0,                                      !- Minute 1
  0;                                      !- Value Until Time 1

OS:Schedule:Day,
  {0c36586b-18ee-4ebc-b6fd-d1452dd7a4c8}, !- Handle
  0700|2300|QuickServiceRestaurant|default|work_eff Summer Design Day, !- Name
  {c69ebc81-395e-426c-8404-a211384cd74b}, !- Schedule Type Limits Name
  ,                                       !- Interpolate to Timestep
  24,                                     !- Hour 1
  0,                                      !- Minute 1
  0;                                      !- Value Until Time 1

OS:Schedule:Day,
  {b6821238-c492-491e-9921-d8aed2e70685}, !- Handle
  0700|2300|QuickServiceRestaurant|default|work_eff Winter Design Day, !- Name
  {c69ebc81-395e-426c-8404-a211384cd74b}, !- Schedule Type Limits Name
  ,                                       !- Interpolate to Timestep
  24,                                     !- Hour 1
  0,                                      !- Minute 1
  0;                                      !- Value Until Time 1

OS:Schedule:Ruleset,
  {8ea9716d-4ce0-45cf-81f8-88f969e603f4}, !- Handle
  0700|2300|QuickServiceRestaurant|default|hvac, !- Name
  {07c6382b-d79f-4e1c-9bb8-4f833afce9f4}, !- Schedule Type Limits Name
  {b5f9eec0-2c7c-40dc-a4e8-56c9f655b94c}, !- Default Day Schedule Name
  {753f4e1e-5006-462b-88f5-3af8a9b983e8}, !- Summer Design Day Schedule Name
  {a664ca72-cb3a-4a83-8297-be78010e2c58}; !- Winter Design Day Schedule Name

OS:ScheduleTypeLimits,
  {07c6382b-d79f-4e1c-9bb8-4f833afce9f4}, !- Handle
  HVAC Operation Schedule Type Limits,    !- Name
  0,                                      !- Lower Limit Value {BasedOnField A4}
  1,                                      !- Upper Limit Value {BasedOnField A4}
  Discrete,                               !- Numeric Type
  Availability;                           !- Unit Type

OS:Schedule:Day,
  {b5f9eec0-2c7c-40dc-a4e8-56c9f655b94c}, !- Handle
  0700|2300|QuickServiceRestaurant|default|hvac |default, !- Name
  {07c6382b-d79f-4e1c-9bb8-4f833afce9f4}, !- Schedule Type Limits Name
  ,                                       !- Interpolate to Timestep
  1,                                      !- Hour 1
  0,                                      !- Minute 1
  1,                                      !- Value Until Time 1
  5,                                      !- Hour 2
  0,                                      !- Minute 2
  0,                                      !- Value Until Time 2
  24,                                     !- Hour 3
  0,                                      !- Minute 3
  1;                                      !- Value Until Time 3

OS:Schedule:Day,
  {753f4e1e-5006-462b-88f5-3af8a9b983e8}, !- Handle
  0700|2300|QuickServiceRestaurant|default|hvac Summer Design Day, !- Name
  {07c6382b-d79f-4e1c-9bb8-4f833afce9f4}, !- Schedule Type Limits Name
  ,                                       !- Interpolate to Timestep
  1,                                      !- Hour 1
  0,                                      !- Minute 1
  1,                                      !- Value Until Time 1
  5,                                      !- Hour 2
  0,                                      !- Minute 2
  0,                                      !- Value Until Time 2
  24,                                     !- Hour 3
  0,                                      !- Minute 3
  1;                                      !- Value Until Time 3

OS:Schedule:Day,
  {a664ca72-cb3a-4a83-8297-be78010e2c58}, !- Handle
  0700|2300|QuickServiceRestaurant|default|hvac Winter Design Day, !- Name
  {07c6382b-d79f-4e1c-9bb8-4f833afce9f4}, !- Schedule Type Limits Name
  ,                                       !- Interpolate to Timestep
  1,                                      !- Hour 1
  0,                                      !- Minute 1
  1,                                      !- Value Until Time 1
  5,                                      !- Hour 2
  0,                                      !- Minute 2
  0,                                      !- Value Until Time 2
  24,                                     !- Hour 3
  0,                                      !- Minute 3
  1;                                      !- Value Until Time 3

OS:Schedule:Ruleset,
  {e968fc0f-7d3b-451e-85eb-8da70b48a2ac}, !- Handle
  0700|2300|QuickServiceRestaurant|default|ext_lighting, !- Name
  {3e63c47e-aa23-4d96-8b70-9fe210119ccb}, !- Schedule Type Limits Name
  {9e0c820d-64d8-4355-91fd-87a2f2f1a8ec}, !- Default Day Schedule Name
  {ecc47e0d-06a5-4bf3-96d6-578b87863a4a}, !- Summer Design Day Schedule Name
  {a5591528-d220-43ba-a9bd-e4c77b3c342f}; !- Winter Design Day Schedule Name

OS:ScheduleTypeLimits,
  {3e63c47e-aa23-4d96-8b70-9fe210119ccb}, !- Handle
  Lights Schedule Type Limits,            !- Name
  0,                                      !- Lower Limit Value {BasedOnField A4}
  1,                                      !- Upper Limit Value {BasedOnField A4}
  Continuous,                             !- Numeric Type
  Dimensionless;                          !- Unit Type

OS:Schedule:Day,
  {9e0c820d-64d8-4355-91fd-87a2f2f1a8ec}, !- Handle
  0700|2300|QuickServiceRestaurant|default|ext_lighting |default, !- Name
  {3e63c47e-aa23-4d96-8b70-9fe210119ccb}, !- Schedule Type Limits Name
  ,                                       !- Interpolate to Timestep
  24,                                     !- Hour 1
  0,                                      !- Minute 1
  1;                                      !- Value Until Time 1

OS:Schedule:Day,
  {ecc47e0d-06a5-4bf3-96d6-578b87863a4a}, !- Handle
  0700|2300|QuickServiceRestaurant|default|ext_lighting Summer Design Day, !- Name
  {3e63c47e-aa23-4d96-8b70-9fe210119ccb}, !- Schedule Type Limits Name
  ,                                       !- Interpolate to Timestep
  24,                                     !- Hour 1
  0,                                      !- Minute 1
  1;                                      !- Value Until Time 1

OS:Schedule:Day,
  {a5591528-d220-43ba-a9bd-e4c77b3c342f}, !- Handle
  0700|2300|QuickServiceRestaurant|default|ext_lighting Winter Design Day, !- Name
  {3e63c47e-aa23-4d96-8b70-9fe210119ccb}, !- Schedule Type Limits Name
  ,                                       !- Interpolate to Timestep
  24,                                     !- Hour 1
  0,                                      !- Minute 1
  1;                                      !- Value Until Time 1

OS:Schedule:Ruleset,
  {7b011033-7f75-4890-a4a9-523d7d95a984}, !- Handle
  0700|2300|QuickServiceRestaurant|default|air_velocity, !- Name
  {20db7a7f-4973-4898-9a24-2ea287f7b9f9}, !- Schedule Type Limits Name
  {44aab3dd-47c2-4919-b7d1-360280597861}, !- Default Day Schedule Name
  {e5977748-c570-402f-998e-23ed7fe288bd}, !- Summer Design Day Schedule Name
  {95c24522-eebc-41e0-af94-dd6b227f5d36}; !- Winter Design Day Schedule Name

OS:ScheduleTypeLimits,
  {20db7a7f-4973-4898-9a24-2ea287f7b9f9}, !- Handle
  Dimensionless Schedule Type Limits,     !- Name
  ,                                       !- Lower Limit Value {BasedOnField A4}
  ,                                       !- Upper Limit Value {BasedOnField A4}
  Continuous,                             !- Numeric Type
  Dimensionless;                          !- Unit Type

OS:Schedule:Day,
  {44aab3dd-47c2-4919-b7d1-360280597861}, !- Handle
  0700|2300|QuickServiceRestaurant|default|air_velocity |default, !- Name
  {20db7a7f-4973-4898-9a24-2ea287f7b9f9}, !- Schedule Type Limits Name
  ,                                       !- Interpolate to Timestep
  24,                                     !- Hour 1
  0,                                      !- Minute 1
  0.200152;                               !- Value Until Time 1

OS:Schedule:Day,
  {e5977748-c570-402f-998e-23ed7fe288bd}, !- Handle
  0700|2300|QuickServiceRestaurant|default|air_velocity Summer Design Day, !- Name
  {20db7a7f-4973-4898-9a24-2ea287f7b9f9}, !- Schedule Type Limits Name
  ,                                       !- Interpolate to Timestep
  24,                                     !- Hour 1
  0,                                      !- Minute 1
  0.200152;                               !- Value Until Time 1

OS:Schedule:Day,
  {95c24522-eebc-41e0-af94-dd6b227f5d36}, !- Handle
  0700|2300|QuickServiceRestaurant|default|air_velocity Winter Design Day, !- Name
  {20db7a7f-4973-4898-9a24-2ea287f7b9f9}, !- Schedule Type Limits Name
  ,                                       !- Interpolate to Timestep
  24,                                     !- Hour 1
  0,                                      !- Minute 1
  0.200152;                               !- Value Until Time 1

OS:Schedule:Ruleset,
  {55eb2e31-8a03-4041-87f3-9873c8c5a8bb}, !- Handle
  0700|2300|QuickServiceRestaurant|default|rh, !- Name
  {20db7a7f-4973-4898-9a24-2ea287f7b9f9}, !- Schedule Type Limits Name
  {19c0c4a3-0017-4c11-a02a-e7416d926cea}, !- Default Day Schedule Name