
OS:Version,
  {81aaf8ee-4c72-4154-82ba-2867376cdeb5}, !- Handle
  1.5.5;                                  !- Version Identifier

OS:ClimateZones,
  {135edfab-17e7-40db-a436-27d385a8cd6d}, !- Handle
  ,                                       !- Active Institution
  ,                                       !- Active Year
  ASHRAE,                                 !- Climate Zone Institution Name 1
  ANSI/ASHRAE Standard 169,               !- Climate Zone Document Name 1
  2006,                                   !- Climate Zone Document Year 1
  ,                                       !- Climate Zone Value 1
  CEC,                                    !- Climate Zone Institution Name 2
  California Climate Zone Descriptions,   !- Climate Zone Document Name 2
  1995,                                   !- Climate Zone Document Year 2
  ;                                       !- Climate Zone Value 2

OS:YearDescription,
  {513d8dda-86cb-442a-b01c-1f7f0e0ac70e}; !- Handle

OS:RadianceParameters,
  {270a96f1-3c86-4b75-a667-cdf22790e2c8}, !- Handle
  1,                                      !- Accumulated Rays per Record
  0,                                      !- Direct Threshold
  1,                                      !- Direct Certainty
  1,                                      !- Direct Jitter
  1,                                      !- Direct Pretest
  6,                                      !- Ambient Bounces VMX
  2,                                      !- Ambient Bounces DMX
  4050,                                   !- Ambient Divisions VMX
  512,                                    !- Ambient Divisions DMX
  256,                                    !- Ambient Supersamples
  0.001,                                  !- Limit Weight VMX
  0.001,                                  !- Limit Weight DMX
  500,                                    !- Klems Sampling Density
  146;                                    !- Sky Discretization Resolution

OS:SimulationControl,
  {2c487a4c-bac9-4ac5-b669-1e49d9da7c2b}, !- Handle
  ,                                       !- Do Zone Sizing Calculation
  ,                                       !- Do System Sizing Calculation
  ,                                       !- Do Plant Sizing Calculation
  No,                                     !- Run Simulation for Sizing Periods
  ,                                       !- Run Simulation for Weather File Run Periods
  0.04,                                   !- Loads Convergence Tolerance Value
  ,                                       !- Temperature Convergence Tolerance Value {deltaC}
  ,                                       !- Solar Distribution
  ,                                       !- Maximum Number of Warmup Days
  2;                                      !- Minimum Number of Warmup Days

OS:Sizing:Parameters,
  {dde5af6f-7923-4600-a28a-7556673a0266}, !- Handle
  1.25,                                   !- Heating Sizing Factor
  1.15;                                   !- Cooling Sizing Factor

OS:ProgramControl,
  {05027a99-f2b3-4aeb-afc6-1425fbb4371d}; !- Handle

OS:Timestep,
  {4ebc9f1e-4707-402e-9844-67eb1ffbd522}, !- Handle
  2;                                      !- Number of Timesteps per Hour

OS:OutputControl:ReportingTolerances,
  {65797aa2-06a9-45fe-b69d-bc6e060399d3}; !- Handle

OS:ConvergenceLimits,
  {9fc11aba-8822-4f3d-970c-46391ba4040d}; !- Handle

OS:ShadowCalculation,
  {ca758bea-4416-4626-9bba-3d8795c79bd6}, !- Handle
  7,                                      !- Calculation Frequency
  15000;                                  !- Maximum Figures in Shadow Overlap Calculations

OS:SurfaceConvectionAlgorithm:Inside,
  {aaabfc36-718a-4ab0-b622-f186ebb45230}, !- Handle
  TARP;                                   !- Algorithm

OS:SurfaceConvectionAlgorithm:Outside,
  {9a0a9f6f-4bbd-4b12-a121-9492a1fcd7d6}, !- Handle
  DOE-2;                                  !- Algorithm

OS:HeatBalanceAlgorithm,
  {9d93e563-e1e0-46d7-9e39-d1c8aceb7212}, !- Handle
  ConductionTransferFunction,             !- Algorithm
  200;                                    !- Surface Temperature Upper Limit {F}

OS:ZoneAirHeatBalanceAlgorithm,
  {8520d93e-310f-4696-9bcd-36228bfdd743}, !- Handle
  AnalyticalSolution;                     !- Algorithm

OS:ZoneAirContaminantBalance,
  {eb5fc3ae-fb22-4160-8fcb-3e3b22b000d3}; !- Handle

OS:ZoneCapacitanceMultiplier:ResearchSpecial,
  {4020ce4f-5a7a-4849-8028-8305d7b751b1}, !- Handle
  ,                                       !- Temperature Capacity Multiplier
  ,                                       !- Humidity Capacity Multiplier
  ;                                       !- Carbon Dioxide Capacity Multiplier

OS:RunPeriod,
  {28df894d-6af9-4fb8-8f56-df1753344aa3}, !- Handle
  Run Period 1,                           !- Name
  1,                                      !- Begin Month
  1,                                      !- Begin Day of Month
  12,                                     !- End Month
  31,                                     !- End Day of Month
  ,                                       !- Use Weather File Holidays and Special Days
  ,                                       !- Use Weather File Daylight Saving Period
  ,                                       !- Apply Weekend Holiday Rule
  ,                                       !- Use Weather File Rain Indicators
  ,                                       !- Use Weather File Snow Indicators
  ;                                       !- Number of Times Runperiod to be Repeated

OS:Building,
  {bf305633-c5a1-4881-9edf-ca5e1a8e1274}, !- Handle
  Building 1,                             !- Name
  ,                                       !- Building Sector Type
  ,                                       !- North Axis {deg}
  ,                                       !- Nominal Floor to Floor Height {m}
  ,                                       !- Space Type Name
  ,                                       !- Default Construction Set Name
  {bc5f4eb4-5741-4308-8081-48d8428cb0bc}, !- Default Schedule Set Name
  ,                                       !- Standards Number of Stories
  ,                                       !- Standards Number of Above Ground Stories
  QuickServiceRestaurant;                 !- Standards Building Type

OS:LifeCycleCost:Parameters,
  {231cf8a0-f0e7-4251-a99f-11f0d464e661}, !- Handle
  FEMP,                                   !- Analysis Type
  ,                                       !- Discounting Convention
  ,                                       !- Inflation Approach
  ,                                       !- Real Discount Rate
  ,                                       !- Nominal Discount Rate
  ,                                       !- Inflation
  ,                                       !- Base Date Month
  ,                                       !- Base Date Year
  ,                                       !- Service Date Month
  ,                                       !- Service Date Year
  ,                                       !- Length of Study Period in Years
  ,                                       !- Tax Rate
  ,                                       !- Depreciation Method
  Yes;                                    !- Use NIST Fuel Escalation Rates

OS:Facility,
  {3ba8e45b-b833-44eb-a723-ea6c3946dc96}; !- Handle

OS:SpaceType,
  {adafffad-131d-4290-bcc2-7961f33fb271}, !- Handle
  QuickServiceRestaurant|Dining|DOE Ref 1980-2004|ASHRAE 169-2006-5A, !- Name
  {5c70efd7-b506-4735-911e-a105e4c1b84f}, !- Default Construction Set Name
  {c51b8f80-7c63-4cdd-a7f9-6e9e4c229e08}, !- Default Schedule Set Name
  {33a6fe10-ff89-4cb1-b987-878cfe8dff14}, !- Group Rendering Name
  {a80ef784-9005-4966-988b-aa1d2c92ebd6}, !- Design Specification Outdoor Air Object Name
  QuickServiceRestaurant,                 !- Standards Building Type
  Dining;                                 !- Standards Space Type

OS:Rendering:Color,
  {33a6fe10-ff89-4cb1-b987-878cfe8dff14}, !- Handle
  Rendering Color 1,                      !- Name
  31,                                     !- Rendering Red Value
  169,                                    !- Rendering Green Value
  34;                                     !- Rendering Blue Value

OS:SpaceType,
  {71e1588b-a2f0-4098-8a7f-087e03e5367b}, !- Handle
  QuickServiceRestaurant|Kitchen|DOE Ref 1980-2004|ASHRAE 169-2006-5A, !- Name
  {5c70efd7-b506-4735-911e-a105e4c1b84f}, !- Default Construction Set Name
  {2092bd88-8848-4a7f-abac-5d778541bf52}, !- Default Schedule Set Name
  {4f84ae06-7e2d-415b-bc64-45cb283a7501}, !- Group Rendering Name
  {9da52a21-10eb-410c-9a48-b1833a1d25a2}, !- Design Specification Outdoor Air Object Name
  QuickServiceRestaurant,                 !- Standards Building Type
  Kitchen;                                !- Standards Space Type

OS:Rendering:Color,
  {4f84ae06-7e2d-415b-bc64-45cb283a7501}, !- Handle
  Rendering Color 2,                      !- Name
  78,                                     !- Rendering Red Value
  222,                                    !- Rendering Green Value
  133;                                    !- Rendering Blue Value

OS:Schedule:Ruleset,
  {8c4a68b1-9312-4ce5-b323-c835683e33fc}, !- Handle
  0700|2300|QuickServiceRestaurant|default|hoo, !- Name
  {dc294167-47fb-464a-871c-1b2bbd8a036c}, !- Schedule Type Limits Name
  {b84266ad-3861-49ae-9020-43883a3f5112}, !- Default Day Schedule Name
  {0cc86d45-d076-4773-8428-1cc4b73abff1}, !- Summer Design Day Schedule Name
  {f92b5cd1-0233-43a9-a268-3aa252835315}; !- Winter Design Day Schedule Name

OS:Schedule:Day,
  {b84266ad-3861-49ae-9020-43883a3f5112}, !- Handle
  0700|2300|QuickServiceRestaurant|default|hoo Schedule Week Day, !- Name
  {dc294167-47fb-464a-871c-1b2bbd8a036c}, !- Schedule Type Limits Name
  ,                                       !- Interpolate to Timestep
  7,                                      !- Hour 1
  0,                                      !- Minute 1
  0,                                      !- Value Until Time 1
  23,                                     !- Hour 2
  0,                                      !- Minute 2
  1,                                      !- Value Until Time 2
  24,                                     !- Hour 3
  0,                                      !- Minute 3
  0;                                      !- Value Until Time 3

OS:Schedule:Day,
  {2f378068-eb1a-4eb1-88a8-4172cc2c9dad}, !- Handle
  Schedule Day 2,                         !- Name
  ,                                       !- Schedule Type Limits Name
  ,                                       !- Interpolate to Timestep
  24,                                     !- Hour 1
  0,                                      !- Minute 1
  0;                                      !- Value Until Time 1

OS:Schedule:Day,
  {f92b5cd1-0233-43a9-a268-3aa252835315}, !- Handle
  0700|2300|QuickServiceRestaurant|default|hoo Winter Design Day, !- Name
  {dc294167-47fb-464a-871c-1b2bbd8a036c}, !- Schedule Type Limits Name
  ,                                       !- Interpolate to Timestep
  24,                                     !- Hour 1
  0,                                      !- Minute 1
  0;                                      !- Value Until Time 1

OS:Schedule:Day,
  {06aa25f1-ff7f-4580-afe2-2e68980121f1}, !- Handle
  Schedule Day 3,                         !- Name
  ,                                       !- Schedule Type Limits Name
  ,                                       !- Interpolate to Timestep
  24,                                     !- Hour 1
  0,                                      !- Minute 1
  0;                                      !- Value Until Time 1

OS:Schedule:Day,
  {0cc86d45-d076-4773-8428-1cc4b73abff1}, !- Handle
  0700|2300|QuickServiceRestaurant|default|hoo Summer Design Day, !- Name
  {dc294167-47fb-464a-871c-1b2bbd8a036c}, !- Schedule Type Limits Name
  ,                                       !- Interpolate to Timestep
  24,                                     !- Hour 1
  0,                                      !- Minute 1
  1;                                      !- Value Until Time 1

OS:DefaultScheduleSet,
  {bc5f4eb4-5741-4308-8081-48d8428cb0bc}, !- Handle
  Building Hours of Operation,            !- Name
  {8c4a68b1-9312-4ce5-b323-c835683e33fc}, !- Hours of Operation Schedule Name
  ,                                       !- Number of People Schedule Name
  ,                                       !- People Activity Level Schedule Name
  ,                                       !- Lighting Schedule Name
  ,                                       !- Electric Equipment Schedule Name
  ,                                       !- Gas Equipment Schedule Name
  ,                                       !- Hot Water Equipment Schedule Name
  ,                                       !- Infiltration Schedule Name
  ,                                       !- Steam Equipment Schedule Name
  ;                                       !- Other Equipment Schedule Name

OS:ScheduleTypeLimits,
  {dc294167-47fb-464a-871c-1b2bbd8a036c}, !- Handle
  OnOff,                                  !- Name
  0,                                      !- Lower Limit Value {BasedOnField A4}
  1,                                      !- Upper Limit Value {BasedOnField A4}
  Discrete,                               !- Numeric Type
  Availability;                           !- Unit Type

OS:Schedule:Ruleset,
  {af69a8f2-f53e-476b-abbc-d85d4a4e58a4}, !- Handle
  0700|2300|QuickServiceRestaurant|default|htg_setpoint, !- Name
  {ff3ce141-b783-4c8b-9999-402613680c48}, !- Schedule Type Limits Name
  {ade2f2bc-155b-4819-97d0-7906226d552e}, !- Default Day Schedule Name
  {abac994a-c466-4f38-928b-deff263054e8}, !- Summer Design Day Schedule Name
  {706f1462-0271-45f5-8c26-45c3d3d3ef35}; !- Winter Design Day Schedule Name

OS:ScheduleTypeLimits,
  {ff3ce141-b783-4c8b-9999-402613680c48}, !- Handle
  Thermostat Heating Setpoint Schedule Type Limits, !- Name
  0,                                      !- Lower Limit Value {BasedOnField A4}
  100,                                    !- Upper Limit Value {BasedOnField A4}
  Continuous,                             !- Numeric Type
  Temperature;                            !- Unit Type

OS:Schedule:Day,
  {ade2f2bc-155b-4819-97d0-7906226d552e}, !- Handle
  0700|2300|QuickServiceRestaurant|default|htg_setpoint |default, !- Name
  {ff3ce141-b783-4c8b-9999-402613680c48}, !- Schedule Type Limits Name
  ,                                       !- Interpolate to Timestep
  24,                                     !- Hour 1
  0,                                      !- Minute 1
  21.0000000000001;                       !- Value Until Time 1

OS:Schedule:Day,
  {abac994a-c466-4f38-928b-deff263054e8}, !- Handle
  0700|2300|QuickServiceRestaurant|default|htg_setpoint Summer Design Day, !- Name
  {ff3ce141-b783-4c8b-9999-402613680c48}, !- Schedule Type Limits Name
  ,                                       !- Interpolate to Timestep
  24,                                     !- Hour 1
  0,                                      !- Minute 1
  21.0000000000001;                       !- Value Until Time 1

OS:Schedule:Day,
  {706f1462-0271-45f5-8c26-45c3d3d3ef35}, !- Handle
  0700|2300|QuickServiceRestaurant|default|htg_setpoint Winter Design Day, !- Name
  {ff3ce141-b783-4c8b-9999-402613680c48}, !- Schedule Type Limits Name
  ,                                       !- Interpolate to Timestep
  24,                                     !- Hour 1
  0,                                      !- Minute 1
  21.0000000000001;                       !- Value Until Time 1

OS:Schedule:Ruleset,
  {ee718f8a-dbe3-45ee-aa24-308125c8e2d7}, !- Handle
  0700|2300|QuickServiceRestaurant|default|elec_equip, !- Name
  {c2a02a21-d78d-4ff9-a4d4-3d1125d8f89c}, !- Schedule Type Limits Name
  {5cd70309-cd24-44af-85f2-31a37cf2de98}, !- Default Day Schedule Name
  {72bbb904-0a33-47ad-a6b1-725c24d260fc}, !- Summer Design Day Schedule Name
  {ff1ac3d7-0642-4e4f-bd26-9a1c6788da67}; !- Winter Design Day Schedule Name

OS:ScheduleTypeLimits,
  {c2a02a21-d78d-4ff9-a4d4-3d1125d8f89c}, !- Handle
  Equipment Schedule Type Limits,         !- Name
  0,                                      !- Lower Limit Value {BasedOnField A4}
  1,                                      !- Upper Limit Value {BasedOnField A4}
  Continuous,                             !- Numeric Type
  Dimensionless;                          !- Unit Type

OS:Schedule:Day,
  {5cd70309-cd24-44af-85f2-31a37cf2de98}, !- Handle
  0700|2300|QuickServiceRestaurant|default|elec_equip |default, !- Name
  {c2a02a21-d78d-4ff9-a4d4-3d1125d8f89c}, !- Schedule Type Limits Name
  ,                                       !- Interpolate to Timestep
  6,                                      !- Hour 1
  0,                                      !- Minute 1
  0.1,                                    !- Value Until Time 1
  8,                                      !- Hour 2
  0,                                      !- Minute 2
  0.35,                                   !- Value Until Time 2
  10,                                     !- Hour 3
  0,                                      !- Minute 3
  0.25,                                   !- Value Until Time 3
  14,                                     !- Hour 4
  0,                                      !- Minute 4
  0.35,                                   !- Value Until Time 4
  17,                                     !- Hour 5
  0,                                      !- Minute 5
  0.25,                                   !- Value Until Time 5
  20,                                     !- Hour 6
  0,                                      !- Minute 6
  0.35,                                   !- Value Until Time 6
  24,                                     !- Hour 7
  0,                                      !- Minute 7
  0.25;                                   !- Value Until Time 7

OS:Schedule:Day,
  {72bbb904-0a33-47ad-a6b1-725c24d260fc}, !- Handle
  0700|2300|QuickServiceRestaurant|default|elec_equip Summer Design Day, !- Name
  {c2a02a21-d78d-4ff9-a4d4-3d1125d8f89c}, !- Schedule Type Limits Name
  ,                                       !- Interpolate to Timestep
  6,                                      !- Hour 1
  0,                                      !- Minute 1
  0.1,                                    !- Value Until Time 1
  8,                                      !- Hour 2
  0,                                      !- Minute 2
  1,                                      !- Value Until Time 2
  10,                                     !- Hour 3
  0,                                      !- Minute 3
  0.25,                                   !- Value Until Time 3
  14,                                     !- Hour 4
  0,                                      !- Minute 4
  1,                                      !- Value Until Time 4
  17,                                     !- Hour 5
  0,                                      !- Minute 5
  0.25,                                   !- Value Until Time 5
  20,                                     !- Hour 6
  0,                                      !- Minute 6
  1,                                      !- Value Until Time 6
  24,                                     !- Hour 7
  0,                                      !- Minute 7
  0.25;                                   !- Value Until Time 7

OS:Schedule:Day,
  {ff1ac3d7-0642-4e4f-bd26-9a1c6788da67}, !- Handle
  0700|2300|QuickServiceRestaurant|default|elec_equip Winter Design Day, !- Name
  {c2a02a21-d78d-4ff9-a4d4-3d1125d8f89c}, !- Schedule Type Limits Name
  ,                                       !- Interpolate to Timestep
  24,                                     !- Hour 1
  0,                                      !- Minute 1
  0.1;                                    !- Value Until Time 1

OS:Schedule:Ruleset,
  {9b40331d-0611-4e5a-b22c-de1e724bfd45}, !- Handle
  0700|2300|QuickServiceRestaurant|default|work_eff, !- Name
  {437542ca-0dbe-4c23-8098-a392d7563094}, !- Schedule Type Limits Name
  {b3aa6cce-a90a-4e69-b178-47d3f856fb40}, !- Default Day Schedule Name
  {2deb689b-a567-4cca-a285-b1a69816b657}, !- Summer Design Day Schedule Name
  {f6c79424-8750-4425-a25f-8345c95665c5}; !- Winter Design Day Schedule Name

OS:ScheduleTypeLimits,
  {437542ca-0dbe-4c23-8098-a392d7563094}, !- Handle
  Fraction Schedule Type Limits,          !- Name
  0,                                      !- Lower Limit Value {BasedOnField A4}
  1,                                      !- Upper Limit Value {BasedOnField A4}
  Continuous,                             !- Numeric Type
  Dimensionless;                          !- Unit Type

OS:Schedule:Day,
  {b3aa6cce-a90a-4e69-b178-47d3f856fb40}, !- Handle
  0700|2300|QuickServiceRestaurant|default|work_eff |default, !- Name
  {437542ca-0dbe-4c23-8098-a392d7563094}, !- Schedule Type Limits Name
  ,                                       !- Interpolate to Timestep
  24,                                     !- Hour 1
  0,                                      !- Minute 1
  0;                                      !- Value Until Time 1

OS:Schedule:Day,
  {2deb689b-a567-4cca-a285-b1a69816b657}, !- Handle
  0700|2300|QuickServiceRestaurant|default|work_eff Summer Design Day, !- Name
  {437542ca-0dbe-4c23-8098-a392d7563094}, !- Schedule Type Limits Name
  ,                                       !- Interpolate to Timestep
  24,                                     !- Hour 1
  0,                                      !- Minute 1
  0;                                      !- Value Until Time 1

OS:Schedule:Day,
  {f6c79424-8750-4425-a25f-8345c95665c5}, !- Handle
  0700|2300|QuickServiceRestaurant|default|work_eff Winter Design Day, !- Name
  {437542ca-0dbe-4c23-8098-a392d7563094}, !- Schedule Type Limits Name
  ,                                       !- Interpolate to Timestep
  24,                                     !- Hour 1
  0,                                      !- Minute 1
  0;                                      !- Value Until Time 1

OS:Schedule:Ruleset,
  {46cebf6c-55f5-458b-8cd5-dd9d3d237359}, !- Handle
  0700|2300|QuickServiceRestaurant|default|hvac, !- Name
  {1135d845-e851-4a40-90a1-045d1e671fef}, !- Schedule Type Limits Name
  {fe4f51aa-209a-43bd-ad34-a614e5f336d6}, !- Default Day Schedule Name
  {5c1d7e23-459d-4ee7-b0be-7c7f2678cefe}, !- Summer Design Day Schedule Name
  {d71cb7fc-c022-47e9-a487-488cd27d1cca}; !- Winter Design Day Schedule Name

OS:ScheduleTypeLimits,
  {1135d845-e851-4a40-90a1-045d1e671fef}, !- Handle
  HVAC Operation Schedule Type Limits,    !- Name
  0,                                      !- Lower Limit Value {BasedOnField A4}
  1,                                      !- Upper Limit Value {BasedOnField A4}
  Discrete,                               !- Numeric Type
  Availability;                           !- Unit Type

OS:Schedule:Day,
  {fe4f51aa-209a-43bd-ad34-a614e5f336d6}, !- Handle
  0700|2300|QuickServiceRestaurant|default|hvac |default, !- Name
  {1135d845-e851-4a40-90a1-045d1e671fef}, !- Schedule Type Limits Name
  ,                                       !- Interpolate to Timestep
  1,                                      !- Hour 1
  0,                                      !- Minute 1
  1,                                      !- Value Until Time 1
  5,                                      !- Hour 2
  0,                                      !- Minute 2
  0,                                      !- Value Until Time 2
  24,                                     !- Hour 3
  0,                                      !- Minute 3
  1;                                      !- Value Until Time 3

OS:Schedule:Day,
  {5c1d7e23-459d-4ee7-b0be-7c7f2678cefe}, !- Handle
  0700|2300|QuickServiceRestaurant|default|hvac Summer Design Day, !- Name
  {1135d845-e851-4a40-90a1-045d1e671fef}, !- Schedule Type Limits Name
  ,                                       !- Interpolate to Timestep
  1,                                      !- Hour 1
  0,                                      !- Minute 1
  1,                                      !- Value Until Time 1
  5,                                      !- Hour 2
  0,                                      !- Minute 2
  0,                                      !- Value Until Time 2
  24,                                     !- Hour 3
  0,                                      !- Minute 3
  1;                                      !- Value Until Time 3

OS:Schedule:Day,
  {d71cb7fc-c022-47e9-a487-488cd27d1cca}, !- Handle
  0700|2300|QuickServiceRestaurant|default|hvac Winter Design Day, !- Name
  {1135d845-e851-4a40-90a1-045d1e671fef}, !- Schedule Type Limits Name
  ,                                       !- Interpolate to Timestep
  1,                                      !- Hour 1
  0,                                      !- Minute 1
  1,                                      !- Value Until Time 1
  5,                                      !- Hour 2
  0,                                      !- Minute 2
  0,                                      !- Value Until Time 2
  24,                                     !- Hour 3
  0,                                      !- Minute 3
  1;                                      !- Value Until Time 3

OS:Schedule:Ruleset,
  {c00c95cc-51c2-4ad0-8e41-d135aed0e4fb}, !- Handle
  0700|2300|QuickServiceRestaurant|default|ext_lighting, !- Name
  {9840d5e4-e11f-4a22-99e9-c7b86eb25756}, !- Schedule Type Limits Name
  {ca841d9e-2030-455f-b430-e6204893e55c}, !- Default Day Schedule Name
  {8ab153db-07e3-4eb0-adcd-5849f7b298ac}, !- Summer Design Day Schedule Name
  {43ba4018-d27b-4da4-961f-77c06455939f}; !- Winter Design Day Schedule Name

OS:ScheduleTypeLimits,
  {9840d5e4-e11f-4a22-99e9-c7b86eb25756}, !- Handle
  Lights Schedule Type Limits,            !- Name
  0,                                      !- Lower Limit Value {BasedOnField A4}
  1,                                      !- Upper Limit Value {BasedOnField A4}
  Continuous,                             !- Numeric Type
  Dimensionless;                          !- Unit Type

OS:Schedule:Day,
  {ca841d9e-2030-455f-b430-e6204893e55c}, !- Handle
  0700|2300|QuickServiceRestaurant|default|ext_lighting |default, !- Name
  {9840d5e4-e11f-4a22-99e9-c7b86eb25756}, !- Schedule Type Limits Name
  ,                                       !- Interpolate to Timestep
  24,                                     !- Hour 1
  0,                                      !- Minute 1
  1;                                      !- Value Until Time 1

OS:Schedule:Day,
  {8ab153db-07e3-4eb0-adcd-5849f7b298ac}, !- Handle
  0700|2300|QuickServiceRestaurant|default|ext_lighting Summer Design Day, !- Name
  {9840d5e4-e11f-4a22-99e9-c7b86eb25756}, !- Schedule Type Limits Name
  ,                                       !- Interpolate to Timestep
  24,                                     !- Hour 1
  0,                                      !- Minute 1
  1;                                      !- Value Until Time 1

OS:Schedule:Day,
  {43ba4018-d27b-4da4-961f-77c06455939f}, !- Handle
  0700|2300|QuickServiceRestaurant|default|ext_lighting Winter Design Day, !- Name
  {9840d5e4-e11f-4a22-99e9-c7b86eb25756}, !- Schedule Type Limits Name
  ,                                       !- Interpolate to Timestep
  24,                                     !- Hour 1
  0,                                      !- Minute 1
  1;                                      !- Value Until Time 1

OS:Schedule:Ruleset,
  {b867bc37-166f-4cb7-99ce-1123a42f72dc}, !- Handle
  0700|2300|QuickServiceRestaurant|default|air_velocity, !- Name
  {ebfbb2dd-c742-4aa8-a9d6-153ba999dc77}, !- Schedule Type Limits Name
  {c26657d6-f04d-4eed-8108-88d7844e7810}, !- Default Day Schedule Name
  {261d2016-313b-4e62-826b-35df8844a5bf}, !- Summer Design Day Schedule Name
  {106431ce-f16a-49fb-b431-9b84d4bf49bb}; !- Winter Design Day Schedule Name

OS:ScheduleTypeLimits,
  {ebfbb2dd-c742-4aa8-a9d6-153ba999dc77}, !- Handle
  Dimensionless Schedule Type Limits,     !- Name
  ,                                       !- Lower Limit Value {BasedOnField A4}
  ,                                       !- Upper Limit Value {BasedOnField A4}
  Continuous,                             !- Numeric Type
  Dimensionless;                          !- Unit Type

OS:Schedule:Day,
  {c26657d6-f04d-4eed-8108-88d7844e7810}, !- Handle
  0700|2300|QuickServiceRestaurant|default|air_velocity |default, !- Name
  {ebfbb2dd-c742-4aa8-a9d6-153ba999dc77}, !- Schedule Type Limits Name
  ,                                       !- Interpolate to Timestep
  24,                                     !- Hour 1
  0,                                      !- Minute 1
  0.200152;                               !- Value Until Time 1

OS:Schedule:Day,
  {261d2016-313b-4e62-826b-35df8844a5bf}, !- Handle
  0700|2300|QuickServiceRestaurant|default|air_velocity Summer Design Day, !- Name
  {ebfbb2dd-c742-4aa8-a9d6-153ba999dc77}, !- Schedule Type Limits Name
  ,                                       !- Interpolate to Timestep
  24,                                     !- Hour 1
  0,                                      !- Minute 1
  0.200152;                               !- Value Until Time 1

OS:Schedule:Day,
  {106431ce-f16a-49fb-b431-9b84d4bf49bb}, !- Handle
  0700|2300|QuickServiceRestaurant|default|air_velocity Winter Design Day, !- Name
  {ebfbb2dd-c742-4aa8-a9d6-153ba999dc77}, !- Schedule Type Limits Name
  ,                                       !- Interpolate to Timestep
  24,                                     !- Hour 1
  0,                                      !- Minute 1
  0.200152;                               !- Value Until Time 1

OS:Schedule:Ruleset,
  {a5649fe4-ec19-4cc5-b498-389cb5f50adc}, !- Handle
  0700|2300|QuickServiceRestaurant|default|rh, !- Name
  {ebfbb2dd-c742-4aa8-a9d6-153ba999dc77}, !- Schedule Type Limits Name
  {6ebbf8fa-4f4a-4fb6-95e0-9b59ac8d0bb4}, !- Default Day Schedule Name