
OS:Version,
  {274a53ac-ae61-4d1d-8a67-ed04882b106d}, !- Handle
  1.6.0;                                  !- Version Identifier

OS:ClimateZones,
  {135edfab-17e7-40db-a436-27d385a8cd6d}, !- Handle
  ,                                       !- Active Institution
  ,                                       !- Active Year
  ASHRAE,                                 !- Climate Zone Institution Name 1
  ANSI/ASHRAE Standard 169,               !- Climate Zone Document Name 1
  2006,                                   !- Climate Zone Document Year 1
  ,                                       !- Climate Zone Value 1
  CEC,                                    !- Climate Zone Institution Name 2
  California Climate Zone Descriptions,   !- Climate Zone Document Name 2
  1995,                                   !- Climate Zone Document Year 2
  ;                                       !- Climate Zone Value 2

OS:YearDescription,
  {513d8dda-86cb-442a-b01c-1f7f0e0ac70e}; !- Handle

OS:RadianceParameters,
  {270a96f1-3c86-4b75-a667-cdf22790e2c8}, !- Handle
  1,                                      !- Accumulated Rays per Record
  0,                                      !- Direct Threshold
  1,                                      !- Direct Certainty
  1,                                      !- Direct Jitter
  1,                                      !- Direct Pretest
  6,                                      !- Ambient Bounces VMX
  2,                                      !- Ambient Bounces DMX
  4050,                                   !- Ambient Divisions VMX
  512,                                    !- Ambient Divisions DMX
  256,                                    !- Ambient Supersamples
  0.001,                                  !- Limit Weight VMX
  0.001,                                  !- Limit Weight DMX
  500,                                    !- Klems Sampling Density
  146;                                    !- Sky Discretization Resolution

OS:SimulationControl,
  {2c487a4c-bac9-4ac5-b669-1e49d9da7c2b}, !- Handle
  ,                                       !- Do Zone Sizing Calculation
  ,                                       !- Do System Sizing Calculation
  ,                                       !- Do Plant Sizing Calculation
  No,                                     !- Run Simulation for Sizing Periods
  ,                                       !- Run Simulation for Weather File Run Periods
  0.04,                                   !- Loads Convergence Tolerance Value
  ,                                       !- Temperature Convergence Tolerance Value {deltaC}
  ,                                       !- Solar Distribution
  ,                                       !- Maximum Number of Warmup Days
  2;                                      !- Minimum Number of Warmup Days

OS:Sizing:Parameters,
  {dde5af6f-7923-4600-a28a-7556673a0266}, !- Handle
  1.25,                                   !- Heating Sizing Factor
  1.15;                                   !- Cooling Sizing Factor

OS:ProgramControl,
  {05027a99-f2b3-4aeb-afc6-1425fbb4371d}; !- Handle

OS:Timestep,
  {4ebc9f1e-4707-402e-9844-67eb1ffbd522}, !- Handle
  2;                                      !- Number of Timesteps per Hour

OS:OutputControl:ReportingTolerances,
  {65797aa2-06a9-45fe-b69d-bc6e060399d3}; !- Handle

OS:ConvergenceLimits,
  {9fc11aba-8822-4f3d-970c-46391ba4040d}; !- Handle

OS:ShadowCalculation,
  {ca758bea-4416-4626-9bba-3d8795c79bd6}, !- Handle
  7,                                      !- Calculation Frequency
  15000;                                  !- Maximum Figures in Shadow Overlap Calculations

OS:SurfaceConvectionAlgorithm:Inside,
  {aaabfc36-718a-4ab0-b622-f186ebb45230}, !- Handle
  TARP;                                   !- Algorithm

OS:SurfaceConvectionAlgorithm:Outside,
  {9a0a9f6f-4bbd-4b12-a121-9492a1fcd7d6}, !- Handle
  DOE-2;                                  !- Algorithm

OS:HeatBalanceAlgorithm,
  {9d93e563-e1e0-46d7-9e39-d1c8aceb7212}, !- Handle
  ConductionTransferFunction,             !- Algorithm
  200;                                    !- Surface Temperature Upper Limit {F}

OS:ZoneAirHeatBalanceAlgorithm,
  {8520d93e-310f-4696-9bcd-36228bfdd743}, !- Handle
  AnalyticalSolution;                     !- Algorithm

OS:ZoneAirContaminantBalance,
  {eb5fc3ae-fb22-4160-8fcb-3e3b22b000d3}; !- Handle

OS:ZoneCapacitanceMultiplier:ResearchSpecial,
  {4020ce4f-5a7a-4849-8028-8305d7b751b1}, !- Handle
  ,                                       !- Temperature Capacity Multiplier
  ,                                       !- Humidity Capacity Multiplier
  ;                                       !- Carbon Dioxide Capacity Multiplier

OS:RunPeriod,
  {28df894d-6af9-4fb8-8f56-df1753344aa3}, !- Handle
  Run Period 1,                           !- Name
  1,                                      !- Begin Month
  1,                                      !- Begin Day of Month
  12,                                     !- End Month
  31,                                     !- End Day of Month
  ,                                       !- Use Weather File Holidays and Special Days
  ,                                       !- Use Weather File Daylight Saving Period
  ,                                       !- Apply Weekend Holiday Rule
  ,                                       !- Use Weather File Rain Indicators
  ,                                       !- Use Weather File Snow Indicators
  ;                                       !- Number of Times Runperiod to be Repeated

OS:Building,
  {bf305633-c5a1-4881-9edf-ca5e1a8e1274}, !- Handle
  Building 1,                             !- Name
  ,                                       !- Building Sector Type
  ,                                       !- North Axis {deg}
  ,                                       !- Nominal Floor to Floor Height {m}
  ,                                       !- Space Type Name
  ,                                       !- Default Construction Set Name
  {0ae1ba1d-d037-47d8-937c-e299157f0f69}, !- Default Schedule Set Name
  ,                                       !- Standards Number of Stories
  ,                                       !- Standards Number of Above Ground Stories
  QuickServiceRestaurant;                 !- Standards Building Type

OS:LifeCycleCost:Parameters,
  {231cf8a0-f0e7-4251-a99f-11f0d464e661}, !- Handle
  FEMP,                                   !- Analysis Type
  ,                                       !- Discounting Convention
  ,                                       !- Inflation Approach
  ,                                       !- Real Discount Rate
  ,                                       !- Nominal Discount Rate
  ,                                       !- Inflation
  ,                                       !- Base Date Month
  ,                                       !- Base Date Year
  ,                                       !- Service Date Month
  ,                                       !- Service Date Year
  ,                                       !- Length of Study Period in Years
  ,                                       !- Tax Rate
  ,                                       !- Depreciation Method
  Yes;                                    !- Use NIST Fuel Escalation Rates

OS:Facility,
  {3ba8e45b-b833-44eb-a723-ea6c3946dc96}; !- Handle

OS:SpaceType,
  {77bc6bfe-1691-4e0e-8266-df71807bca3d}, !- Handle
  QuickServiceRestaurant|Dining|DOE Ref Pre-1980|ASHRAE 169-2006-5A, !- Name
  {e8521453-3292-4a18-8c38-c45e7d93c2f3}, !- Default Construction Set Name
  {e2c11a00-0492-4578-9609-5dd27ae14c06}, !- Default Schedule Set Name
  {d9ed517a-9e80-4620-b414-565152cc1756}, !- Group Rendering Name
  {24b609f9-5cf7-4955-b0c6-d2ec098d65b3}, !- Design Specification Outdoor Air Object Name
  QuickServiceRestaurant,                 !- Standards Building Type
  Dining;                                 !- Standards Space Type

OS:Rendering:Color,
  {d9ed517a-9e80-4620-b414-565152cc1756}, !- Handle
  Rendering Color 1,                      !- Name
  31,                                     !- Rendering Red Value
  169,                                    !- Rendering Green Value
  34;                                     !- Rendering Blue Value

OS:SpaceType,
  {b2806ac9-73c3-47a7-875a-b218fdf536cc}, !- Handle
  QuickServiceRestaurant|Kitchen|DOE Ref Pre-1980|ASHRAE 169-2006-5A, !- Name
  {e8521453-3292-4a18-8c38-c45e7d93c2f3}, !- Default Construction Set Name
  {4dc4e628-745c-4372-ba8a-643519040192}, !- Default Schedule Set Name
  {25f440e5-1c59-4f29-beac-25b2604198cb}, !- Group Rendering Name
  {e9663fed-c7e2-4d87-b13f-584546a1fe6d}, !- Design Specification Outdoor Air Object Name
  QuickServiceRestaurant,                 !- Standards Building Type
  Kitchen;                                !- Standards Space Type

OS:Rendering:Color,
  {25f440e5-1c59-4f29-beac-25b2604198cb}, !- Handle
  Rendering Color 2,                      !- Name
  78,                                     !- Rendering Red Value
  222,                                    !- Rendering Green Value
  133;                                    !- Rendering Blue Value

OS:Schedule:Ruleset,
  {08b752b1-d5b0-48c1-9b9b-47bd4a0a3b1d}, !- Handle
  0700|2300|QuickServiceRestaurant|default|hoo, !- Name
  {bcbc5a61-020a-4fea-b587-f50a2db21945}, !- Schedule Type Limits Name
  {30373744-a9ee-4aee-aff0-3ed733100029}, !- Default Day Schedule Name
  {eb93ae4d-0272-4a58-94f3-4712b3d72929}, !- Summer Design Day Schedule Name
  {dec23469-c579-4a70-885f-588d056a55f1}; !- Winter Design Day Schedule Name

OS:Schedule:Day,
  {30373744-a9ee-4aee-aff0-3ed733100029}, !- Handle
  0700|2300|QuickServiceRestaurant|default|hoo Schedule Week Day, !- Name
  {bcbc5a61-020a-4fea-b587-f50a2db21945}, !- Schedule Type Limits Name
  ,                                       !- Interpolate to Timestep
  7,                                      !- Hour 1
  0,                                      !- Minute 1
  0,                                      !- Value Until Time 1
  23,                                     !- Hour 2
  0,                                      !- Minute 2
  1,                                      !- Value Until Time 2
  24,                                     !- Hour 3
  0,                                      !- Minute 3
  0;                                      !- Value Until Time 3

OS:Schedule:Day,
  {9d1c24cd-1744-40ac-a4e3-93332c3f6b4b}, !- Handle
  Schedule Day 2,                         !- Name
  ,                                       !- Schedule Type Limits Name
  ,                                       !- Interpolate to Timestep
  24,                                     !- Hour 1
  0,                                      !- Minute 1
  0;                                      !- Value Until Time 1

OS:Schedule:Day,
  {dec23469-c579-4a70-885f-588d056a55f1}, !- Handle
  0700|2300|QuickServiceRestaurant|default|hoo Winter Design Day, !- Name
  {bcbc5a61-020a-4fea-b587-f50a2db21945}, !- Schedule Type Limits Name
  ,                                       !- Interpolate to Timestep
  24,                                     !- Hour 1
  0,                                      !- Minute 1
  0;                                      !- Value Until Time 1

OS:Schedule:Day,
  {bee54f52-e31b-40cd-9257-3d93065fc487}, !- Handle
  Schedule Day 3,                         !- Name
  ,                                       !- Schedule Type Limits Name
  ,                                       !- Interpolate to Timestep
  24,                                     !- Hour 1
  0,                                      !- Minute 1
  0;                                      !- Value Until Time 1

OS:Schedule:Day,
  {eb93ae4d-0272-4a58-94f3-4712b3d72929}, !- Handle
  0700|2300|QuickServiceRestaurant|default|hoo Summer Design Day, !- Name
  {bcbc5a61-020a-4fea-b587-f50a2db21945}, !- Schedule Type Limits Name
  ,                                       !- Interpolate to Timestep
  24,                                     !- Hour 1
  0,                                      !- Minute 1
  1;                                      !- Value Until Time 1

OS:DefaultScheduleSet,
  {0ae1ba1d-d037-47d8-937c-e299157f0f69}, !- Handle
  Building Hours of Operation,            !- Name
  {08b752b1-d5b0-48c1-9b9b-47bd4a0a3b1d}, !- Hours of Operation Schedule Name
  ,                                       !- Number of People Schedule Name
  ,                                       !- People Activity Level Schedule Name
  ,                                       !- Lighting Schedule Name
  ,                                       !- Electric Equipment Schedule Name
  ,                                       !- Gas Equipment Schedule Name
  ,                                       !- Hot Water Equipment Schedule Name
  ,                                       !- Infiltration Schedule Name
  ,                                       !- Steam Equipment Schedule Name
  ;                                       !- Other Equipment Schedule Name

OS:ScheduleTypeLimits,
  {bcbc5a61-020a-4fea-b587-f50a2db21945}, !- Handle
  OnOff,                                  !- Name
  0,                                      !- Lower Limit Value {BasedOnField A4}
  1,                                      !- Upper Limit Value {BasedOnField A4}
  Discrete,                               !- Numeric Type
  Availability;                           !- Unit Type

OS:Schedule:Ruleset,
  {421dfc82-baa4-4ced-b361-19842b9acddc}, !- Handle
  0700|2300|QuickServiceRestaurant|default|swh, !- Name
  {51889cd7-a2fb-4073-a886-5a2a05e7aec1}, !- Schedule Type Limits Name
  {0e9dc519-7948-4d6c-94d1-97f12e14d9ff}, !- Default Day Schedule Name
  {82d11c46-9e51-4649-8cd8-c5a73cce2753}, !- Summer Design Day Schedule Name
  {15ce005d-9b3d-4e11-81d4-f002a2e7622f}; !- Winter Design Day Schedule Name

OS:ScheduleTypeLimits,
  {51889cd7-a2fb-4073-a886-5a2a05e7aec1}, !- Handle
  Water Use Schedule Type Limits,         !- Name
  0,                                      !- Lower Limit Value {BasedOnField A4}
  1,                                      !- Upper Limit Value {BasedOnField A4}
  Continuous,                             !- Numeric Type
  Dimensionless;                          !- Unit Type

OS:Schedule:Day,
  {0e9dc519-7948-4d6c-94d1-97f12e14d9ff}, !- Handle
  0700|2300|QuickServiceRestaurant|default|swh |default, !- Name
  {51889cd7-a2fb-4073-a886-5a2a05e7aec1}, !- Schedule Type Limits Name
  ,                                       !- Interpolate to Timestep
  6,                                      !- Hour 1
  0,                                      !- Minute 1
  0,                                      !- Value Until Time 1
  8,                                      !- Hour 2
  0,                                      !- Minute 2
  0.15,                                   !- Value Until Time 2
  9,                                      !- Hour 3
  0,                                      !- Minute 3
  0.33,                                   !- Value Until Time 3
  10,                                     !- Hour 4
  0,                                      !- Minute 4
  0.13,                                   !- Value Until Time 4
  11,                                     !- Hour 5
  0,                                      !- Minute 5
  0.1,                                    !- Value Until Time 5
  12,                                     !- Hour 6
  0,                                      !- Minute 6
  0.72,                                   !- Value Until Time 6
  13,                                     !- Hour 7
  0,                                      !- Minute 7
  0.31,                                   !- Value Until Time 7
  14,                                     !- Hour 8
  0,                                      !- Minute 8
  0.98,                                   !- Value Until Time 8
  15,                                     !- Hour 9
  0,                                      !- Minute 9
  0.92,                                   !- Value Until Time 9
  16,                                     !- Hour 10
  0,                                      !- Minute 10
  0.22,                                   !- Value Until Time 10
  17,                                     !- Hour 11
  0,                                      !- Minute 11
  0.31,                                   !- Value Until Time 11
  18,                                     !- Hour 12
  0,                                      !- Minute 12
  0.23,                                   !- Value Until Time 12
  19,                                     !- Hour 13
  0,                                      !- Minute 13
  0.16,                                   !- Value Until Time 13
  20,                                     !- Hour 14
  0,                                      !- Minute 14
  0.1,                                    !- Value Until Time 14
  21,                                     !- Hour 15
  0,                                      !- Minute 15
  0.4,                                    !- Value Until Time 15
  22,                                     !- Hour 16
  0,                                      !- Minute 16
  0.42,                                   !- Value Until Time 16
  23,                                     !- Hour 17
  0,                                      !- Minute 17
  0.43,                                   !- Value Until Time 17
  24,                                     !- Hour 18
  0,                                      !- Minute 18
  0.15;                                   !- Value Until Time 18

OS:Schedule:Day,
  {82d11c46-9e51-4649-8cd8-c5a73cce2753}, !- Handle
  0700|2300|QuickServiceRestaurant|default|swh Summer Design Day, !- Name
  {51889cd7-a2fb-4073-a886-5a2a05e7aec1}, !- Schedule Type Limits Name
  ,                                       !- Interpolate to Timestep
  6,                                      !- Hour 1
  0,                                      !- Minute 1
  0,                                      !- Value Until Time 1
  8,                                      !- Hour 2
  0,                                      !- Minute 2
  0.15,                                   !- Value Until Time 2
  9,                                      !- Hour 3
  0,                                      !- Minute 3
  0.33,                                   !- Value Until Time 3
  10,                                     !- Hour 4
  0,                                      !- Minute 4
  0.13,                                   !- Value Until Time 4
  11,                                     !- Hour 5
  0,                                      !- Minute 5
  0.1,                                    !- Value Until Time 5
  12,                                     !- Hour 6
  0,                                      !- Minute 6
  0.72,                                   !- Value Until Time 6
  13,                                     !- Hour 7
  0,                                      !- Minute 7
  0.31,                                   !- Value Until Time 7
  14,                                     !- Hour 8
  0,                                      !- Minute 8
  0.98,                                   !- Value Until Time 8
  15,                                     !- Hour 9
  0,                                      !- Minute 9
  0.92,                                   !- Value Until Time 9
  16,                                     !- Hour 10
  0,                                      !- Minute 10
  0.22,                                   !- Value Until Time 10
  17,                                     !- Hour 11
  0,                                      !- Minute 11
  0.31,                                   !- Value Until Time 11
  18,                                     !- Hour 12
  0,                                      !- Minute 12
  0.23,                                   !- Value Until Time 12
  19,                                     !- Hour 13
  0,                                      !- Minute 13
  0.16,                                   !- Value Until Time 13
  20,                                     !- Hour 14
  0,                                      !- Minute 14
  0.1,                                    !- Value Until Time 14
  21,                                     !- Hour 15
  0,                                      !- Minute 15
  0.4,                                    !- Value Until Time 15
  22,                                     !- Hour 16
  0,                                      !- Minute 16
  0.42,                                   !- Value Until Time 16
  23,                                     !- Hour 17
  0,                                      !- Minute 17
  0.43,                                   !- Value Until Time 17
  24,                                     !- Hour 18
  0,                                      !- Minute 18
  0.15;                                   !- Value Until Time 18

OS:Schedule:Day,
  {15ce005d-9b3d-4e11-81d4-f002a2e7622f}, !- Handle
  0700|2300|QuickServiceRestaurant|default|swh Winter Design Day, !- Name
  {51889cd7-a2fb-4073-a886-5a2a05e7aec1}, !- Schedule Type Limits Name
  ,                                       !- Interpolate to Timestep
  6,                                      !- Hour 1
  0,                                      !- Minute 1
  0,                                      !- Value Until Time 1
  8,                                      !- Hour 2
  0,                                      !- Minute 2
  0.15,                                   !- Value Until Time 2
  9,                                      !- Hour 3
  0,                                      !- Minute 3
  0.33,                                   !- Value Until Time 3
  10,                                     !- Hour 4
  0,                                      !- Minute 4
  0.13,                                   !- Value Until Time 4
  11,                                     !- Hour 5
  0,                                      !- Minute 5
  0.1,                                    !- Value Until Time 5
  12,                                     !- Hour 6
  0,                                      !- Minute 6
  0.72,                                   !- Value Until Time 6
  13,                                     !- Hour 7
  0,                                      !- Minute 7
  0.31,                                   !- Value Until Time 7
  14,                                     !- Hour 8
  0,                                      !- Minute 8
  0.98,                                   !- Value Until Time 8
  15,                                     !- Hour 9
  0,                                      !- Minute 9
  0.92,                                   !- Value Until Time 9
  16,                                     !- Hour 10
  0,                                      !- Minute 10
  0.22,                                   !- Value Until Time 10
  17,                                     !- Hour 11
  0,                                      !- Minute 11
  0.31,                                   !- Value Until Time 11
  18,                                     !- Hour 12
  0,                                      !- Minute 12
  0.23,                                   !- Value Until Time 12
  19,                                     !- Hour 13
  0,                                      !- Minute 13
  0.16,                                   !- Value Until Time 13
  20,                                     !- Hour 14
  0,                                      !- Minute 14
  0.1,                                    !- Value Until Time 14
  21,                                     !- Hour 15
  0,                                      !- Minute 15
  0.4,                                    !- Value Until Time 15
  22,                                     !- Hour 16
  0,                                      !- Minute 16
  0.42,                                   !- Value Until Time 16
  23,                                     !- Hour 17
  0,                                      !- Minute 17
  0.43,                                   !- Value Until Time 17
  24,                                     !- Hour 18
  0,                                      !- Minute 18
  0.15;                                   !- Value Until Time 18

OS:Schedule:Rule,
  {43ebe141-59ba-46ad-a646-00a05814dcb3}, !- Handle
  0700|2300|QuickServiceRestaurant|default|swh |1/1-12/31|Sat/Sun Rule, !- Name
  {421dfc82-baa4-4ced-b361-19842b9acddc}, !- Schedule Ruleset Name
  0,                                      !- Rule Order
  {2b0c90d9-d5e4-47de-8b9d-75b53e203c37}, !- Day Schedule Name
  Yes,                                    !- Apply Sunday
  ,                                       !- Apply Monday
  ,                                       !- Apply Tuesday
  ,                                       !- Apply Wednesday
  ,                                       !- Apply Thursday
  ,                                       !- Apply Friday
  Yes,                                    !- Apply Saturday
  ,                                       !- Apply Holiday
  DateRange,                              !- Date Specification Type
  1,                                      !- Start Month
  1,                                      !- Start Day
  12,                                     !- End Month
  31;                                     !- End Day

OS:Schedule:Day,
  {2b0c90d9-d5e4-47de-8b9d-75b53e203c37}, !- Handle
  0700|2300|QuickServiceRestaurant|default|swh |1/1-12/31|Sat/Sun, !- Name
  {51889cd7-a2fb-4073-a886-5a2a05e7aec1}, !- Schedule Type Limits Name
  ,                                       !- Interpolate to Timestep
  7,                                      !- Hour 1
  0,                                      !- Minute 1
  0,                                      !- Value Until Time 1
  10,                                     !- Hour 2
  0,                                      !- Minute 2
  0.15,                                   !- Value Until Time 2
  11,                                     !- Hour 3
  0,                                      !- Minute 3
  0.1,                                    !- Value Until Time 3
  12,                                     !- Hour 4
  0,                                      !- Minute 4
  0.72,                                   !- Value Until Time 4
  13,                                     !- Hour 5
  0,                                      !- Minute 5
  0.6,                                    !- Value Until Time 5
  14,                                     !- Hour 6
  0,                                      !- Minute 6
  0.98,                                   !- Value Until Time 6
  15,                                     !- Hour 7
  0,                                      !- Minute 7
  0.92,                                   !- Value Until Time 7
  17,                                     !- Hour 8
  0,                                      !- Minute 8
  0.25,                                   !- Value Until Time 8
  18,                                     !- Hour 9
  0,                                      !- Minute 9
  0.23,                                   !- Value Until Time 9
  19,                                     !- Hour 10
  0,                                      !- Minute 10
  0.16,                                   !- Value Until Time 10
  20,                                     !- Hour 11
  0,                                      !- Minute 11
  0.1,                                    !- Value Until Time 11
  21,                                     !- Hour 12
  0,                                      !- Minute 12
  0.4,                                    !- Value Until Time 12
  22,                                     !- Hour 13
  0,                                      !- Minute 13
  0.42,                                   !- Value Until Time 13
  23,                                     !- Hour 14
  0,                                      !- Minute 14
  0.43,                                   !- Value Until Time 14
  24,                                     !- Hour 15
  0,                                      !- Minute 15
  0;                                      !- Value Until Time 15

OS:Schedule:Ruleset,
  {71550ab1-cd87-49f8-8b5d-01b05aebc57d}, !- Handle
  0700|2300|QuickServiceRestaurant|default|elec_equip, !- Name
  {1cca41b1-3a5a-4397-9edc-f663818746e8}, !- Schedule Type Limits Name
  {a457bca4-29fa-4982-8efb-7cacfd2a46d6}, !- Default Day Schedule Name
  {127bd2b9-35a7-42d1-b34a-c07dd1ad5592}, !- Summer Design Day Schedule Name
  {39cdf24a-631d-4cbd-9e87-ae74e04d999f}; !- Winter Design Day Schedule Name

OS:ScheduleTypeLimits,
  {1cca41b1-3a5a-4397-9edc-f663818746e8}, !- Handle
  Equipment Schedule Type Limits,         !- Name
  0,                                      !- Lower Limit Value {BasedOnField A4}
  1,                                      !- Upper Limit Value {BasedOnField A4}
  Continuous,                             !- Numeric Type
  Dimensionless;                          !- Unit Type

OS:Schedule:Day,
  {a457bca4-29fa-4982-8efb-7cacfd2a46d6}, !- Handle
  0700|2300|QuickServiceRestaurant|default|elec_equip |default, !- Name
  {1cca41b1-3a5a-4397-9edc-f663818746e8}, !- Schedule Type Limits Name
  ,                                       !- Interpolate to Timestep
  6,                                      !- Hour 1
  0,                                      !- Minute 1
  0.1,                                    !- Value Until Time 1
  8,                                      !- Hour 2
  0,                                      !- Minute 2
  0.35,                                   !- Value Until Time 2
  10,                                     !- Hour 3
  0,                                      !- Minute 3
  0.25,                                   !- Value Until Time 3
  14,                                     !- Hour 4