
OS:Version,
  {97b22ec8-8bc7-4ef2-8afa-054fd3c42690}, !- Handle
  1.5.5;                                  !- Version Identifier

OS:ClimateZones,
  {135edfab-17e7-40db-a436-27d385a8cd6d}, !- Handle
  ,                                       !- Active Institution
  ,                                       !- Active Year
  ASHRAE,                                 !- Climate Zone Institution Name 1
  ANSI/ASHRAE Standard 169,               !- Climate Zone Document Name 1
  2006,                                   !- Climate Zone Document Year 1
  ,                                       !- Climate Zone Value 1
  CEC,                                    !- Climate Zone Institution Name 2
  California Climate Zone Descriptions,   !- Climate Zone Document Name 2
  1995,                                   !- Climate Zone Document Year 2
  ;                                       !- Climate Zone Value 2

OS:YearDescription,
  {513d8dda-86cb-442a-b01c-1f7f0e0ac70e}; !- Handle

OS:RadianceParameters,
  {270a96f1-3c86-4b75-a667-cdf22790e2c8}, !- Handle
  1,                                      !- Accumulated Rays per Record
  0,                                      !- Direct Threshold
  1,                                      !- Direct Certainty
  1,                                      !- Direct Jitter
  1,                                      !- Direct Pretest
  6,                                      !- Ambient Bounces VMX
  2,                                      !- Ambient Bounces DMX
  4050,                                   !- Ambient Divisions VMX
  512,                                    !- Ambient Divisions DMX
  256,                                    !- Ambient Supersamples
  0.001,                                  !- Limit Weight VMX
  0.001,                                  !- Limit Weight DMX
  500,                                    !- Klems Sampling Density
  146;                                    !- Sky Discretization Resolution

OS:SimulationControl,
  {2c487a4c-bac9-4ac5-b669-1e49d9da7c2b}, !- Handle
  ,                                       !- Do Zone Sizing Calculation
  ,                                       !- Do System Sizing Calculation
  ,                                       !- Do Plant Sizing Calculation
  No,                                     !- Run Simulation for Sizing Periods
  ,                                       !- Run Simulation for Weather File Run Periods
  0.04,                                   !- Loads Convergence Tolerance Value
  ,                                       !- Temperature Convergence Tolerance Value {deltaC}
  ,                                       !- Solar Distribution
  ,                                       !- Maximum Number of Warmup Days
  2;                                      !- Minimum Number of Warmup Days

OS:Sizing:Parameters,
  {dde5af6f-7923-4600-a28a-7556673a0266}, !- Handle
  1.25,                                   !- Heating Sizing Factor
  1.15;                                   !- Cooling Sizing Factor

OS:ProgramControl,
  {05027a99-f2b3-4aeb-afc6-1425fbb4371d}; !- Handle

OS:Timestep,
  {4ebc9f1e-4707-402e-9844-67eb1ffbd522}, !- Handle
  2;                                      !- Number of Timesteps per Hour

OS:OutputControl:ReportingTolerances,
  {65797aa2-06a9-45fe-b69d-bc6e060399d3}; !- Handle

OS:ConvergenceLimits,
  {9fc11aba-8822-4f3d-970c-46391ba4040d}; !- Handle

OS:ShadowCalculation,
  {ca758bea-4416-4626-9bba-3d8795c79bd6}, !- Handle
  7,                                      !- Calculation Frequency
  15000;                                  !- Maximum Figures in Shadow Overlap Calculations

OS:SurfaceConvectionAlgorithm:Inside,
  {aaabfc36-718a-4ab0-b622-f186ebb45230}, !- Handle
  TARP;                                   !- Algorithm

OS:SurfaceConvectionAlgorithm:Outside,
  {9a0a9f6f-4bbd-4b12-a121-9492a1fcd7d6}, !- Handle
  DOE-2;                                  !- Algorithm

OS:HeatBalanceAlgorithm,
  {9d93e563-e1e0-46d7-9e39-d1c8aceb7212}, !- Handle
  ConductionTransferFunction,             !- Algorithm
  200;                                    !- Surface Temperature Upper Limit {F}

OS:ZoneAirHeatBalanceAlgorithm,
  {8520d93e-310f-4696-9bcd-36228bfdd743}, !- Handle
  AnalyticalSolution;                     !- Algorithm

OS:ZoneAirContaminantBalance,
  {eb5fc3ae-fb22-4160-8fcb-3e3b22b000d3}; !- Handle

OS:ZoneCapacitanceMultiplier:ResearchSpecial,
  {4020ce4f-5a7a-4849-8028-8305d7b751b1}, !- Handle
  ,                                       !- Temperature Capacity Multiplier
  ,                                       !- Humidity Capacity Multiplier
  ;                                       !- Carbon Dioxide Capacity Multiplier

OS:RunPeriod,
  {28df894d-6af9-4fb8-8f56-df1753344aa3}, !- Handle
  Run Period 1,                           !- Name
  1,                                      !- Begin Month
  1,                                      !- Begin Day of Month
  12,                                     !- End Month
  31,                                     !- End Day of Month
  ,                                       !- Use Weather File Holidays and Special Days
  ,                                       !- Use Weather File Daylight Saving Period
  ,                                       !- Apply Weekend Holiday Rule
  ,                                       !- Use Weather File Rain Indicators
  ,                                       !- Use Weather File Snow Indicators
  ;                                       !- Number of Times Runperiod to be Repeated

OS:Building,
  {bf305633-c5a1-4881-9edf-ca5e1a8e1274}, !- Handle
  Building 1,                             !- Name
  ,                                       !- Building Sector Type
  ,                                       !- North Axis {deg}
  ,                                       !- Nominal Floor to Floor Height {m}
  ,                                       !- Space Type Name
  ,                                       !- Default Construction Set Name
  {f4e41b4f-a87d-4ec5-bfd3-8ed0e7dcb1e0}, !- Default Schedule Set Name
  ,                                       !- Standards Number of Stories
  ,                                       !- Standards Number of Above Ground Stories
  Retail;                                 !- Standards Building Type

OS:LifeCycleCost:Parameters,
  {231cf8a0-f0e7-4251-a99f-11f0d464e661}, !- Handle
  FEMP,                                   !- Analysis Type
  ,                                       !- Discounting Convention
  ,                                       !- Inflation Approach
  ,                                       !- Real Discount Rate
  ,                                       !- Nominal Discount Rate
  ,                                       !- Inflation
  ,                                       !- Base Date Month
  ,                                       !- Base Date Year
  ,                                       !- Service Date Month
  ,                                       !- Service Date Year
  ,                                       !- Length of Study Period in Years
  ,                                       !- Tax Rate
  ,                                       !- Depreciation Method
  Yes;                                    !- Use NIST Fuel Escalation Rates

OS:Facility,
  {3ba8e45b-b833-44eb-a723-ea6c3946dc96}; !- Handle

OS:SpaceType,
  {35ed24c1-59b1-47c0-af1e-e12b33f7f497}, !- Handle
  Retail|Retail|DOE Ref Pre-1980|ASHRAE 169-2006-5A, !- Name
  {0c564e48-5cbf-4fbe-a3a5-bebb9db74907}, !- Default Construction Set Name
  {451b7aad-27b3-458a-8e33-8904b97a308e}, !- Default Schedule Set Name
  {95a66e10-c937-44b1-bd21-c16826d8a225}, !- Group Rendering Name
  {5c0af1d8-ba52-4eb4-8b3c-ef6d5e3a7fa7}, !- Design Specification Outdoor Air Object Name
  Retail,                                 !- Standards Building Type
  Retail;                                 !- Standards Space Type

OS:Rendering:Color,
  {95a66e10-c937-44b1-bd21-c16826d8a225}, !- Handle
  Rendering Color 1,                      !- Name
  171,                                    !- Rendering Red Value
  222,                                    !- Rendering Green Value
  78;                                     !- Rendering Blue Value

OS:SpaceType,
  {28947857-3a55-4cbf-8854-0202959b2d26}, !- Handle
  Retail|Back_Space|DOE Ref Pre-1980|ASHRAE 169-2006-5A, !- Name
  {0c564e48-5cbf-4fbe-a3a5-bebb9db74907}, !- Default Construction Set Name
  {c91e5509-5094-49f7-906d-a09a69aad0a3}, !- Default Schedule Set Name
  {62d24002-8e08-41be-981b-28a09f9582a2}, !- Group Rendering Name
  {ab3775c7-02cd-43e2-853a-f7eccd74808e}, !- Design Specification Outdoor Air Object Name
  Retail,                                 !- Standards Building Type
  Back_Space;                             !- Standards Space Type

OS:Rendering:Color,
  {62d24002-8e08-41be-981b-28a09f9582a2}, !- Handle
  Rendering Color 2,                      !- Name
  120,                                    !- Rendering Red Value
  149,                                    !- Rendering Green Value
  230;                                    !- Rendering Blue Value

OS:SpaceType,
  {118349c8-1a78-48f2-959e-ffe5e1423431}, !- Handle
  Retail|BlendFront|DOE Ref Pre-1980|ASHRAE 169-2006-5A, !- Name
  {0c564e48-5cbf-4fbe-a3a5-bebb9db74907}, !- Default Construction Set Name
  ,                                       !- Default Schedule Set Name
  {5aa51fd2-1d84-41b1-a859-1101e8d17e87}, !- Group Rendering Name
  {83cd59d8-f423-49f7-8f4e-fa7ab17d307b}, !- Design Specification Outdoor Air Object Name
  Retail,                                 !- Standards Building Type
  BlendFront;                             !- Standards Space Type

OS:Rendering:Color,
  {5aa51fd2-1d84-41b1-a859-1101e8d17e87}, !- Handle
  Rendering Color 3,                      !- Name
  171,                                    !- Rendering Red Value
  222,                                    !- Rendering Green Value
  78;                                     !- Rendering Blue Value

OS:Schedule:Ruleset,
  {2b6b487e-39ee-4419-899b-80dc1f512d84}, !- Handle
  0700|2100|Retail|default|hoo,           !- Name
  {d1ec865e-6c77-4e65-82fa-8b80d4d6185e}, !- Schedule Type Limits Name
  {67f4059d-4caf-40c2-87fb-a4b3f9ef22fa}, !- Default Day Schedule Name
  {420e323e-f2de-4cc4-8b9d-70acebf822d8}, !- Summer Design Day Schedule Name
  {dba39590-12fa-4216-811b-bc4e2d46991e}; !- Winter Design Day Schedule Name

OS:Schedule:Day,
  {67f4059d-4caf-40c2-87fb-a4b3f9ef22fa}, !- Handle
  0700|2100|Retail|default|hoo Schedule Week Day, !- Name
  {d1ec865e-6c77-4e65-82fa-8b80d4d6185e}, !- Schedule Type Limits Name
  ,                                       !- Interpolate to Timestep
  7,                                      !- Hour 1
  0,                                      !- Minute 1
  0,                                      !- Value Until Time 1
  21,                                     !- Hour 2
  0,                                      !- Minute 2
  1,                                      !- Value Until Time 2
  24,                                     !- Hour 3
  0,                                      !- Minute 3
  0;                                      !- Value Until Time 3

OS:Schedule:Day,
  {54448cde-d253-4656-9326-10eb12703665}, !- Handle
  Schedule Day 2,                         !- Name
  ,                                       !- Schedule Type Limits Name
  ,                                       !- Interpolate to Timestep
  24,                                     !- Hour 1
  0,                                      !- Minute 1
  0;                                      !- Value Until Time 1

OS:Schedule:Day,
  {dba39590-12fa-4216-811b-bc4e2d46991e}, !- Handle
  0700|2100|Retail|default|hoo Winter Design Day, !- Name
  {d1ec865e-6c77-4e65-82fa-8b80d4d6185e}, !- Schedule Type Limits Name
  ,                                       !- Interpolate to Timestep
  24,                                     !- Hour 1
  0,                                      !- Minute 1
  0;                                      !- Value Until Time 1

OS:Schedule:Day,
  {90bf6045-e449-47ed-910b-c4bed12d1f28}, !- Handle
  Schedule Day 3,                         !- Name
  ,                                       !- Schedule Type Limits Name
  ,                                       !- Interpolate to Timestep
  24,                                     !- Hour 1
  0,                                      !- Minute 1
  0;                                      !- Value Until Time 1

OS:Schedule:Day,
  {420e323e-f2de-4cc4-8b9d-70acebf822d8}, !- Handle
  0700|2100|Retail|default|hoo Summer Design Day, !- Name
  {d1ec865e-6c77-4e65-82fa-8b80d4d6185e}, !- Schedule Type Limits Name
  ,                                       !- Interpolate to Timestep
  24,                                     !- Hour 1
  0,                                      !- Minute 1
  1;                                      !- Value Until Time 1

OS:DefaultScheduleSet,
  {f4e41b4f-a87d-4ec5-bfd3-8ed0e7dcb1e0}, !- Handle
  Building Hours of Operation,            !- Name
  {2b6b487e-39ee-4419-899b-80dc1f512d84}, !- Hours of Operation Schedule Name
  ,                                       !- Number of People Schedule Name
  ,                                       !- People Activity Level Schedule Name
  ,                                       !- Lighting Schedule Name
  ,                                       !- Electric Equipment Schedule Name
  ,                                       !- Gas Equipment Schedule Name
  ,                                       !- Hot Water Equipment Schedule Name
  ,                                       !- Infiltration Schedule Name
  ,                                       !- Steam Equipment Schedule Name
  ;                                       !- Other Equipment Schedule Name

OS:ScheduleTypeLimits,
  {d1ec865e-6c77-4e65-82fa-8b80d4d6185e}, !- Handle
  OnOff,                                  !- Name
  0,                                      !- Lower Limit Value {BasedOnField A4}
  1,                                      !- Upper Limit Value {BasedOnField A4}
  Discrete,                               !- Numeric Type
  Availability;                           !- Unit Type

OS:Schedule:Ruleset,
  {7fcdcf83-0678-42e3-a1d7-2a8c419ec12f}, !- Handle
  0700|2100|Retail|default|clg_setpoint,  !- Name
  {faff057d-ad50-4eba-9dec-4152a2693c57}, !- Schedule Type Limits Name
  {b643defc-d1d1-4b4b-9cfd-faec36e966ee}, !- Default Day Schedule Name
  {08045510-a61c-4e28-9803-b9578f116d37}, !- Summer Design Day Schedule Name
  {566fea18-aecd-46ac-8586-f4c65e626e11}; !- Winter Design Day Schedule Name

OS:ScheduleTypeLimits,
  {faff057d-ad50-4eba-9dec-4152a2693c57}, !- Handle
  Thermostat Cooling Setpoint Schedule Type Limits, !- Name
  0,                                      !- Lower Limit Value {BasedOnField A4}
  100,                                    !- Upper Limit Value {BasedOnField A4}
  Continuous,                             !- Numeric Type
  Temperature;                            !- Unit Type

OS:Schedule:Day,
  {b643defc-d1d1-4b4b-9cfd-faec36e966ee}, !- Handle
  0700|2100|Retail|default|clg_setpoint |default, !- Name
  {faff057d-ad50-4eba-9dec-4152a2693c57}, !- Schedule Type Limits Name
  ,                                       !- Interpolate to Timestep
  24,                                     !- Hour 1
  0,                                      !- Minute 1
  24.0000000000001;                       !- Value Until Time 1

OS:Schedule:Day,
  {08045510-a61c-4e28-9803-b9578f116d37}, !- Handle
  0700|2100|Retail|default|clg_setpoint Summer Design Day, !- Name
  {faff057d-ad50-4eba-9dec-4152a2693c57}, !- Schedule Type Limits Name
  ,                                       !- Interpolate to Timestep
  24,                                     !- Hour 1
  0,                                      !- Minute 1
  24.0000000000001;                       !- Value Until Time 1

OS:Schedule:Day,
  {566fea18-aecd-46ac-8586-f4c65e626e11}, !- Handle
  0700|2100|Retail|default|clg_setpoint Winter Design Day, !- Name
  {faff057d-ad50-4eba-9dec-4152a2693c57}, !- Schedule Type Limits Name
  ,                                       !- Interpolate to Timestep
  24,                                     !- Hour 1
  0,                                      !- Minute 1
  24.0000000000001;                       !- Value Until Time 1

OS:Schedule:Rule,
  {3b2a0478-00fe-4034-b482-dc84a913db69}, !- Handle
  0700|2100|Retail|default|clg_setpoint |1/1-12/31|Sat Rule, !- Name
  {7fcdcf83-0678-42e3-a1d7-2a8c419ec12f}, !- Schedule Ruleset Name
  0,                                      !- Rule Order
  {b362ce06-4cd4-4770-b592-98a41b336dfe}, !- Day Schedule Name
  ,                                       !- Apply Sunday
  ,                                       !- Apply Monday
  ,                                       !- Apply Tuesday
  ,                                       !- Apply Wednesday
  ,                                       !- Apply Thursday
  ,                                       !- Apply Friday
  Yes,                                    !- Apply Saturday
  ,                                       !- Apply Holiday
  DateRange,                              !- Date Specification Type
  1,                                      !- Start Month
  1,                                      !- Start Day
  12,                                     !- End Month
  31;                                     !- End Day

OS:Schedule:Day,
  {b362ce06-4cd4-4770-b592-98a41b336dfe}, !- Handle
  0700|2100|Retail|default|clg_setpoint |1/1-12/31|Sat, !- Name
  {faff057d-ad50-4eba-9dec-4152a2693c57}, !- Schedule Type Limits Name
  ,                                       !- Interpolate to Timestep
  24,                                     !- Hour 1
  0,                                      !- Minute 1
  24.0000000000001;                       !- Value Until Time 1

OS:Schedule:Rule,
  {c250131b-e625-4139-9d74-3e346be43a53}, !- Handle
  0700|2100|Retail|default|clg_setpoint |1/1-12/31|Sun Rule, !- Name
  {7fcdcf83-0678-42e3-a1d7-2a8c419ec12f}, !- Schedule Ruleset Name
  1,                                      !- Rule Order
  {59110bb9-19ad-42d8-9515-1d63f0f5d07e}, !- Day Schedule Name
  Yes,                                    !- Apply Sunday
  ,                                       !- Apply Monday
  ,                                       !- Apply Tuesday
  ,                                       !- Apply Wednesday
  ,                                       !- Apply Thursday
  ,                                       !- Apply Friday
  ,                                       !- Apply Saturday
  ,                                       !- Apply Holiday
  DateRange,                              !- Date Specification Type
  1,                                      !- Start Month
  1,                                      !- Start Day
  12,                                     !- End Month
  31;                                     !- End Day

OS:Schedule:Day,
  {59110bb9-19ad-42d8-9515-1d63f0f5d07e}, !- Handle
  0700|2100|Retail|default|clg_setpoint |1/1-12/31|Sun, !- Name
  {faff057d-ad50-4eba-9dec-4152a2693c57}, !- Schedule Type Limits Name
  ,                                       !- Interpolate to Timestep
  24,                                     !- Hour 1
  0,                                      !- Minute 1
  24.0000000000001;                       !- Value Until Time 1

OS:Schedule:Ruleset,
  {976973ac-4cdf-468b-9894-4a37966f2125}, !- Handle
  0700|2100|Retail|default|air_velocity,  !- Name
  {60cd45e7-c2fd-44a5-80bb-584e27972044}, !- Schedule Type Limits Name
  {ea77cdc2-b155-4e9e-90bd-647e0447ef08}, !- Default Day Schedule Name
  {de49b721-2618-49da-87dc-7e511ab407e9}, !- Summer Design Day Schedule Name
  {0fecbd82-58c9-4013-8079-51388dcee959}; !- Winter Design Day Schedule Name

OS:ScheduleTypeLimits,
  {60cd45e7-c2fd-44a5-80bb-584e27972044}, !- Handle
  Dimensionless Schedule Type Limits,     !- Name
  ,                                       !- Lower Limit Value {BasedOnField A4}
  ,                                       !- Upper Limit Value {BasedOnField A4}
  Continuous,                             !- Numeric Type
  Dimensionless;                          !- Unit Type

OS:Schedule:Day,
  {ea77cdc2-b155-4e9e-90bd-647e0447ef08}, !- Handle
  0700|2100|Retail|default|air_velocity |default, !- Name
  {60cd45e7-c2fd-44a5-80bb-584e27972044}, !- Schedule Type Limits Name
  ,                                       !- Interpolate to Timestep
  24,                                     !- Hour 1
  0,                                      !- Minute 1
  0.200152;                               !- Value Until Time 1

OS:Schedule:Day,
  {de49b721-2618-49da-87dc-7e511ab407e9}, !- Handle
  0700|2100|Retail|default|air_velocity Summer Design Day, !- Name
  {60cd45e7-c2fd-44a5-80bb-584e27972044}, !- Schedule Type Limits Name
  ,                                       !- Interpolate to Timestep
  24,                                     !- Hour 1
  0,                                      !- Minute 1
  0.200152;                               !- Value Until Time 1

OS:Schedule:Day,
  {0fecbd82-58c9-4013-8079-51388dcee959}, !- Handle
  0700|2100|Retail|default|air_velocity Winter Design Day, !- Name
  {60cd45e7-c2fd-44a5-80bb-584e27972044}, !- Schedule Type Limits Name
  ,                                       !- Interpolate to Timestep
  24,                                     !- Hour 1
  0,                                      !- Minute 1
  0.200152;                               !- Value Until Time 1

OS:Schedule:Ruleset,
  {475bb664-8198-4149-88d3-3f88970bba10}, !- Handle
  0700|2100|Retail|default|clothing,      !- Name
  {60cd45e7-c2fd-44a5-80bb-584e27972044}, !- Schedule Type Limits Name
  {66df71a3-b810-4d1d-9e0c-7338b8d203a4}, !- Default Day Schedule Name
  {508e6336-0543-498d-b406-57e23da6fb22}, !- Summer Design Day Schedule Name
  {a5af3cbe-4754-4d7c-840f-db39d44d079f}; !- Winter Design Day Schedule Name

OS:Schedule:Day,
  {66df71a3-b810-4d1d-9e0c-7338b8d203a4}, !- Handle
  0700|2100|Retail|default|clothing |default, !- Name
  {60cd45e7-c2fd-44a5-80bb-584e27972044}, !- Schedule Type Limits Name
  ,                                       !- Interpolate to Timestep
  24,                                     !- Hour 1
  0,                                      !- Minute 1
  1;                                      !- Value Until Time 1

OS:Schedule:Day,
  {508e6336-0543-498d-b406-57e23da6fb22}, !- Handle
  0700|2100|Retail|default|clothing Summer Design Day, !- Name
  {60cd45e7-c2fd-44a5-80bb-584e27972044}, !- Schedule Type Limits Name
  ,                                       !- Interpolate to Timestep
  24,                                     !- Hour 1
  0,                                      !- Minute 1
  1;                                      !- Value Until Time 1

OS:Schedule:Day,
  {a5af3cbe-4754-4d7c-840f-db39d44d079f}, !- Handle
  0700|2100|Retail|default|clothing Winter Design Day, !- Name
  {60cd45e7-c2fd-44a5-80bb-584e27972044}, !- Schedule Type Limits Name
  ,                                       !- Interpolate to Timestep
  24,                                     !- Hour 1
  0,                                      !- Minute 1
  1;                                      !- Value Until Time 1

OS:Schedule:Rule,
  {8fb8a3b1-998f-43e0-8fbd-f2248bdbf55c}, !- Handle
  0700|2100|Retail|default|clothing |5/1-9/30|Mon/Tue/Wed/Thu/Fri/Sat/Sun Rule, !- Name
  {475bb664-8198-4149-88d3-3f88970bba10}, !- Schedule Ruleset Name
  0,                                      !- Rule Order
  {79429483-f437-4210-bc24-633262a39984}, !- Day Schedule Name
  Yes,                                    !- Apply Sunday
  Yes,                                    !- Apply Monday
  Yes,                                    !- Apply Tuesday
  Yes,                                    !- Apply Wednesday
  Yes,                                    !- Apply Thursday
  Yes,                                    !- Apply Friday
  Yes,                                    !- Apply Saturday
  ,                                       !- Apply Holiday
  DateRange,                              !- Date Specification Type
  5,                                      !- Start Month
  1,                                      !- Start Day
  9,                                      !- End Month
  30;                                     !- End Day

OS:Schedule:Day,
  {79429483-f437-4210-bc24-633262a39984}, !- Handle
  0700|2100|Retail|default|clothing |5/1-9/30|Mon/Tue/Wed/Thu/Fri/Sat/Sun, !- Name
  {60cd45e7-c2fd-44a5-80bb-584e27972044}, !- Schedule Type Limits Name
  ,                                       !- Interpolate to Timestep
  24,                                     !- Hour 1
  0,                                      !- Minute 1
  0.5;                                    !- Value Until Time 1

OS:Schedule:Rule,
  {d0863b28-d045-4963-9c85-a4902c715b73}, !- Handle
  0700|2100|Retail|default|clothing |10/1-12/31|Mon/Tue/Wed/Thu/Fri/Sat/Sun Rule, !- Name
  {475bb664-8198-4149-88d3-3f88970bba10}, !- Schedule Ruleset Name
  1,                                      !- Rule Order
  {ecd2ec6b-93da-4277-9baa-e1114b9e304f}, !- Day Schedule Name
  Yes,                                    !- Apply Sunday
  Yes,                                    !- Apply Monday
  Yes,                                    !- Apply Tuesday
  Yes,                                    !- Apply Wednesday
  Yes,                                    !- Apply Thursday
  Yes,                                    !- Apply Friday
  Yes,                                    !- Apply Saturday
  ,                                       !- Apply Holiday
  DateRange,                              !- Date Specification Type
  10,                                     !- Start Month
  1,                                      !- Start Day
  12,                                     !- End Month
  31;                                     !- End Day

OS:Schedule:Day,
  {ecd2ec6b-93da-4277-9baa-e1114b9e304f}, !- Handle
  0700|2100|Retail|default|clothing |10/1-12/31|Mon/Tue/Wed/Thu/Fri/Sat/Sun, !- Name
  {60cd45e7-c2fd-44a5-80bb-584e27972044}, !- Schedule Type Limits Name
  ,                                       !- Interpolate to Timestep
  24,                                     !- Hour 1
  0,                                      !- Minute 1
  1;                                      !- Value Until Time 1

OS:Schedule:Ruleset,
  {e64d3271-fdc3-41eb-8f02-7427f3a8b6b4}, !- Handle
  0700|2100|Retail|default|htg_setpoint,  !- Name
  {7afbc00b-f4c1-40e9-869a-e2aeecbd2b4b}, !- Schedule Type Limits Name
  {1d5c347c-2f4a-4753-b69e-4112580b4863}, !- Default Day Schedule Name
  {d9fe2e6b-98bc-45ab-92e5-57366ebfaf74}, !- Summer Design Day Schedule Name
  {88310569-0fb2-46d2-a5ba-cba362ad7e7f}; !- Winter Design Day Schedule Name

OS:ScheduleTypeLimits,
  {7afbc00b-f4c1-40e9-869a-e2aeecbd2b4b}, !- Handle
  Thermostat Heating Setpoint Schedule Type Limits, !- Name
  0,                                      !- Lower Limit Value {BasedOnField A4}
  100,                                    !- Upper Limit Value {BasedOnField A4}
  Continuous,                             !- Numeric Type
  Temperature;                            !- Unit Type

OS:Schedule:Day,
  {1d5c347c-2f4a-4753-b69e-4112580b4863}, !- Handle
  0700|2100|Retail|default|htg_setpoint |default, !- Name
  {7afbc00b-f4c1-40e9-869a-e2aeecbd2b4b}, !- Schedule Type Limits Name
  ,                                       !- Interpolate to Timestep
  24,                                     !- Hour 1
  0,                                      !- Minute 1
  21.0000000000001;                       !- Value Until Time 1

OS:Schedule:Day,
  {d9fe2e6b-98bc-45ab-92e5-57366ebfaf74}, !- Handle
  0700|2100|Retail|default|htg_setpoint Summer Design Day, !- Name
  {7afbc00b-f4c1-40e9-869a-e2aeecbd2b4b}, !- Schedule Type Limits Name
  ,                                       !- Interpolate to Timestep
  24,                                     !- Hour 1
  0,                                      !- Minute 1
  21.0000000000001;                       !- Value Until Time 1

OS:Schedule:Day,
  {88310569-0fb2-46d2-a5ba-cba362ad7e7f}, !- Handle
  0700|2100|Retail|default|htg_setpoint Winter Design Day, !- Name
  {7afbc00b-f4c1-40e9-869a-e2aeecbd2b4b}, !- Schedule Type Limits Name
  ,                                       !- Interpolate to Timestep
  24,                                     !- Hour 1
  0,                                      !- Minute 1
  21.0000000000001;                       !- Value Until Time 1

OS:Schedule:Rule,
  {04d78a28-d4c8-4d27-aba3-9f4bd6f4b3c1}, !- Handle
  0700|2100|Retail|default|htg_setpoint |1/1-12/31|Sat Rule, !- Name
  {e64d3271-fdc3-41eb-8f02-7427f3a8b6b4}, !- Schedule Ruleset Name
  0,                                      !- Rule Order
  {87ab7739-53f1-4958-9019-6e34423356f0}, !- Day Schedule Name
  ,                                       !- Apply Sunday
  ,                                       !- Apply Monday
  ,                                       !- Apply Tuesday
  ,                                       !- Apply Wednesday
  ,                                       !- Apply Thursday
  ,                                       !- Apply Friday
  Yes,                                    !- Apply Saturday
  ,                                       !- Apply Holiday
  DateRange,                              !- Date Specification Type
  1,                                      !- Start Month
  1,                                      !- Start Day
  12,                                     !- End Month
  31;                                     !- End Day

OS:Schedule:Day,
  {87ab7739-53f1-4958-9019-6e34423356f0}, !- Handle
  0700|2100|Retail|default|htg_setpoint |1/1-12/31|Sat, !- Name
  {7afbc00b-f4c1-40e9-869a-e2aeecbd2b4b}, !- Schedule Type Limits Name