
OS:Version,
  {74302afd-15c3-4c3c-9829-1bea5a756aef}, !- Handle
  1.6.0;                                  !- Version Identifier

OS:ClimateZones,
  {135edfab-17e7-40db-a436-27d385a8cd6d}, !- Handle
  ,                                       !- Active Institution
  ,                                       !- Active Year
  ASHRAE,                                 !- Climate Zone Institution Name 1
  ANSI/ASHRAE Standard 169,               !- Climate Zone Document Name 1
  2006,                                   !- Climate Zone Document Year 1
  ,                                       !- Climate Zone Value 1
  CEC,                                    !- Climate Zone Institution Name 2
  California Climate Zone Descriptions,   !- Climate Zone Document Name 2
  1995,                                   !- Climate Zone Document Year 2
  ;                                       !- Climate Zone Value 2

OS:YearDescription,
  {513d8dda-86cb-442a-b01c-1f7f0e0ac70e}; !- Handle

OS:RadianceParameters,
  {270a96f1-3c86-4b75-a667-cdf22790e2c8}, !- Handle
  1,                                      !- Accumulated Rays per Record
  0,                                      !- Direct Threshold
  1,                                      !- Direct Certainty
  1,                                      !- Direct Jitter
  1,                                      !- Direct Pretest
  6,                                      !- Ambient Bounces VMX
  2,                                      !- Ambient Bounces DMX
  4050,                                   !- Ambient Divisions VMX
  512,                                    !- Ambient Divisions DMX
  256,                                    !- Ambient Supersamples
  0.001,                                  !- Limit Weight VMX
  0.001,                                  !- Limit Weight DMX
  500,                                    !- Klems Sampling Density
  146;                                    !- Sky Discretization Resolution

OS:SimulationControl,
  {2c487a4c-bac9-4ac5-b669-1e49d9da7c2b}, !- Handle
  ,                                       !- Do Zone Sizing Calculation
  ,                                       !- Do System Sizing Calculation
  ,                                       !- Do Plant Sizing Calculation
  No,                                     !- Run Simulation for Sizing Periods
  ,                                       !- Run Simulation for Weather File Run Periods
  0.04,                                   !- Loads Convergence Tolerance Value
  ,                                       !- Temperature Convergence Tolerance Value {deltaC}
  ,                                       !- Solar Distribution
  ,                                       !- Maximum Number of Warmup Days
  2;                                      !- Minimum Number of Warmup Days

OS:Sizing:Parameters,
  {dde5af6f-7923-4600-a28a-7556673a0266}, !- Handle
  1.25,                                   !- Heating Sizing Factor
  1.15;                                   !- Cooling Sizing Factor

OS:ProgramControl,
  {05027a99-f2b3-4aeb-afc6-1425fbb4371d}; !- Handle

OS:Timestep,
  {4ebc9f1e-4707-402e-9844-67eb1ffbd522}, !- Handle
  2;                                      !- Number of Timesteps per Hour

OS:OutputControl:ReportingTolerances,
  {65797aa2-06a9-45fe-b69d-bc6e060399d3}; !- Handle

OS:ConvergenceLimits,
  {9fc11aba-8822-4f3d-970c-46391ba4040d}; !- Handle

OS:ShadowCalculation,
  {ca758bea-4416-4626-9bba-3d8795c79bd6}, !- Handle
  7,                                      !- Calculation Frequency
  15000;                                  !- Maximum Figures in Shadow Overlap Calculations

OS:SurfaceConvectionAlgorithm:Inside,
  {aaabfc36-718a-4ab0-b622-f186ebb45230}, !- Handle
  TARP;                                   !- Algorithm

OS:SurfaceConvectionAlgorithm:Outside,
  {9a0a9f6f-4bbd-4b12-a121-9492a1fcd7d6}, !- Handle
  DOE-2;                                  !- Algorithm

OS:HeatBalanceAlgorithm,
  {9d93e563-e1e0-46d7-9e39-d1c8aceb7212}, !- Handle
  ConductionTransferFunction,             !- Algorithm
  200;                                    !- Surface Temperature Upper Limit {F}

OS:ZoneAirHeatBalanceAlgorithm,
  {8520d93e-310f-4696-9bcd-36228bfdd743}, !- Handle
  AnalyticalSolution;                     !- Algorithm

OS:ZoneAirContaminantBalance,
  {eb5fc3ae-fb22-4160-8fcb-3e3b22b000d3}; !- Handle

OS:ZoneCapacitanceMultiplier:ResearchSpecial,
  {4020ce4f-5a7a-4849-8028-8305d7b751b1}, !- Handle
  ,                                       !- Temperature Capacity Multiplier
  ,                                       !- Humidity Capacity Multiplier
  ;                                       !- Carbon Dioxide Capacity Multiplier

OS:RunPeriod,
  {28df894d-6af9-4fb8-8f56-df1753344aa3}, !- Handle
  Run Period 1,                           !- Name
  1,                                      !- Begin Month
  1,                                      !- Begin Day of Month
  12,                                     !- End Month
  31,                                     !- End Day of Month
  ,                                       !- Use Weather File Holidays and Special Days
  ,                                       !- Use Weather File Daylight Saving Period
  ,                                       !- Apply Weekend Holiday Rule
  ,                                       !- Use Weather File Rain Indicators
  ,                                       !- Use Weather File Snow Indicators
  ;                                       !- Number of Times Runperiod to be Repeated

OS:Building,
  {bf305633-c5a1-4881-9edf-ca5e1a8e1274}, !- Handle
  Building 1,                             !- Name
  ,                                       !- Building Sector Type
  ,                                       !- North Axis {deg}
  ,                                       !- Nominal Floor to Floor Height {m}
  ,                                       !- Space Type Name
  ,                                       !- Default Construction Set Name
  {94a0eebb-0b03-4602-a605-09cf900d9928}, !- Default Schedule Set Name
  ,                                       !- Standards Number of Stories
  ,                                       !- Standards Number of Above Ground Stories
  Retail;                                 !- Standards Building Type

OS:LifeCycleCost:Parameters,
  {231cf8a0-f0e7-4251-a99f-11f0d464e661}, !- Handle
  FEMP,                                   !- Analysis Type
  ,                                       !- Discounting Convention
  ,                                       !- Inflation Approach
  ,                                       !- Real Discount Rate
  ,                                       !- Nominal Discount Rate
  ,                                       !- Inflation
  ,                                       !- Base Date Month
  ,                                       !- Base Date Year
  ,                                       !- Service Date Month
  ,                                       !- Service Date Year
  ,                                       !- Length of Study Period in Years
  ,                                       !- Tax Rate
  ,                                       !- Depreciation Method
  Yes;                                    !- Use NIST Fuel Escalation Rates

OS:Facility,
  {3ba8e45b-b833-44eb-a723-ea6c3946dc96}; !- Handle

OS:SpaceType,
  {d367baf8-33c6-4e4c-860c-3a3a9f49a711}, !- Handle
  Retail|Retail|DOE Ref Pre-1980|ASHRAE 169-2006-5A, !- Name
  {87264452-e051-4035-8674-07391932250a}, !- Default Construction Set Name
  {42e21603-9b4a-4148-9fe9-ff0c63b26ff9}, !- Default Schedule Set Name
  {99a3095f-7ffe-4873-9abd-503b541ca5ea}, !- Group Rendering Name
  {a4e9d926-97c8-4cbd-947e-f46cb0aa2529}, !- Design Specification Outdoor Air Object Name
  Retail,                                 !- Standards Building Type
  Retail;                                 !- Standards Space Type

OS:Rendering:Color,
  {99a3095f-7ffe-4873-9abd-503b541ca5ea}, !- Handle
  Rendering Color 1,                      !- Name
  171,                                    !- Rendering Red Value
  222,                                    !- Rendering Green Value
  78;                                     !- Rendering Blue Value

OS:SpaceType,
  {7ffe1a87-8587-4f8e-81ce-3de857855128}, !- Handle
  Retail|BackSpace|DOE Ref Pre-1980|ASHRAE 169-2006-5A, !- Name
  {87264452-e051-4035-8674-07391932250a}, !- Default Construction Set Name
  {06355044-ad97-4c0b-bf44-bac794d83edc}, !- Default Schedule Set Name
  {299da269-5fd2-44cf-b88f-e538d9d03ed8}, !- Group Rendering Name
  {9579f875-e127-4da7-8cbd-1c3da428e8eb}, !- Design Specification Outdoor Air Object Name
  Retail,                                 !- Standards Building Type
  BackSpace;                              !- Standards Space Type

OS:Rendering:Color,
  {299da269-5fd2-44cf-b88f-e538d9d03ed8}, !- Handle
  Rendering Color 2,                      !- Name
  120,                                    !- Rendering Red Value
  149,                                    !- Rendering Green Value
  230;                                    !- Rendering Blue Value

OS:SpaceType,
  {ba4005e7-2e26-444b-ad99-cf2175aed755}, !- Handle
  Retail|BlendFront|DOE Ref Pre-1980|ASHRAE 169-2006-5A, !- Name
  {87264452-e051-4035-8674-07391932250a}, !- Default Construction Set Name
  ,                                       !- Default Schedule Set Name
  {f235b1c2-a30d-499f-9c1d-d8178e67028c}, !- Group Rendering Name
  {c88f47f1-d5fa-499f-87ad-797ed84f1421}, !- Design Specification Outdoor Air Object Name
  Retail,                                 !- Standards Building Type
  BlendFront;                             !- Standards Space Type

OS:Rendering:Color,
  {f235b1c2-a30d-499f-9c1d-d8178e67028c}, !- Handle
  Rendering Color 3,                      !- Name
  171,                                    !- Rendering Red Value
  222,                                    !- Rendering Green Value
  78;                                     !- Rendering Blue Value

OS:Schedule:Ruleset,
  {b04f5117-d2dd-483f-abb9-79544a76bbc5}, !- Handle
  0700|2100|Retail|default|hoo,           !- Name
  {60b74268-4268-4579-ac7d-a3da097ef71f}, !- Schedule Type Limits Name
  {e9a4080d-e2ca-4db7-bcb8-43ad8b40d4df}, !- Default Day Schedule Name
  {423a4fdb-d3c0-4e55-9208-d0c791c6cd1a}, !- Summer Design Day Schedule Name
  {79b6e7a4-d19a-4161-a018-405ca9bb74ea}; !- Winter Design Day Schedule Name

OS:Schedule:Day,
  {e9a4080d-e2ca-4db7-bcb8-43ad8b40d4df}, !- Handle
  0700|2100|Retail|default|hoo Schedule Week Day, !- Name
  {60b74268-4268-4579-ac7d-a3da097ef71f}, !- Schedule Type Limits Name
  ,                                       !- Interpolate to Timestep
  7,                                      !- Hour 1
  0,                                      !- Minute 1
  0,                                      !- Value Until Time 1
  21,                                     !- Hour 2
  0,                                      !- Minute 2
  1,                                      !- Value Until Time 2
  24,                                     !- Hour 3
  0,                                      !- Minute 3
  0;                                      !- Value Until Time 3

OS:Schedule:Day,
  {97d10384-6f0c-4bb6-bc43-fe2b984b73da}, !- Handle
  Schedule Day 2,                         !- Name
  ,                                       !- Schedule Type Limits Name
  ,                                       !- Interpolate to Timestep
  24,                                     !- Hour 1
  0,                                      !- Minute 1
  0;                                      !- Value Until Time 1

OS:Schedule:Day,
  {79b6e7a4-d19a-4161-a018-405ca9bb74ea}, !- Handle
  0700|2100|Retail|default|hoo Winter Design Day, !- Name
  {60b74268-4268-4579-ac7d-a3da097ef71f}, !- Schedule Type Limits Name
  ,                                       !- Interpolate to Timestep
  24,                                     !- Hour 1
  0,                                      !- Minute 1
  0;                                      !- Value Until Time 1

OS:Schedule:Day,
  {b7249ddd-2553-403a-8543-36fe4a2540ff}, !- Handle
  Schedule Day 3,                         !- Name
  ,                                       !- Schedule Type Limits Name
  ,                                       !- Interpolate to Timestep
  24,                                     !- Hour 1
  0,                                      !- Minute 1
  0;                                      !- Value Until Time 1

OS:Schedule:Day,
  {423a4fdb-d3c0-4e55-9208-d0c791c6cd1a}, !- Handle
  0700|2100|Retail|default|hoo Summer Design Day, !- Name
  {60b74268-4268-4579-ac7d-a3da097ef71f}, !- Schedule Type Limits Name
  ,                                       !- Interpolate to Timestep
  24,                                     !- Hour 1
  0,                                      !- Minute 1
  1;                                      !- Value Until Time 1

OS:DefaultScheduleSet,
  {94a0eebb-0b03-4602-a605-09cf900d9928}, !- Handle
  Building Hours of Operation,            !- Name
  {b04f5117-d2dd-483f-abb9-79544a76bbc5}, !- Hours of Operation Schedule Name
  ,                                       !- Number of People Schedule Name
  ,                                       !- People Activity Level Schedule Name
  ,                                       !- Lighting Schedule Name
  ,                                       !- Electric Equipment Schedule Name
  ,                                       !- Gas Equipment Schedule Name
  ,                                       !- Hot Water Equipment Schedule Name
  ,                                       !- Infiltration Schedule Name
  ,                                       !- Steam Equipment Schedule Name
  ;                                       !- Other Equipment Schedule Name

OS:ScheduleTypeLimits,
  {60b74268-4268-4579-ac7d-a3da097ef71f}, !- Handle
  OnOff,                                  !- Name
  0,                                      !- Lower Limit Value {BasedOnField A4}
  1,                                      !- Upper Limit Value {BasedOnField A4}
  Discrete,                               !- Numeric Type
  Availability;                           !- Unit Type

OS:Schedule:Ruleset,
  {a205544b-3ac0-4bf3-a57f-1931dd612bf2}, !- Handle
  0700|2100|Retail|default|occ,           !- Name
  {93627a45-1d8a-4612-840f-414f361a19c1}, !- Schedule Type Limits Name
  {7539ff3a-75a6-4043-9e24-b61033dcbf52}, !- Default Day Schedule Name
  {dc3222ec-f3ff-4e38-83ff-0e218d113c3a}, !- Summer Design Day Schedule Name
  {2a4aed25-a28d-4949-ab9a-00cb75bc76ff}; !- Winter Design Day Schedule Name

OS:ScheduleTypeLimits,
  {93627a45-1d8a-4612-840f-414f361a19c1}, !- Handle
  Occupancy Schedule Type Limits,         !- Name
  0,                                      !- Lower Limit Value {BasedOnField A4}
  1,                                      !- Upper Limit Value {BasedOnField A4}
  Continuous,                             !- Numeric Type
  Dimensionless;                          !- Unit Type

OS:Schedule:Day,
  {7539ff3a-75a6-4043-9e24-b61033dcbf52}, !- Handle
  0700|2100|Retail|default|occ |default,  !- Name
  {93627a45-1d8a-4612-840f-414f361a19c1}, !- Schedule Type Limits Name
  ,                                       !- Interpolate to Timestep
  7,                                      !- Hour 1
  0,                                      !- Minute 1
  0,                                      !- Value Until Time 1
  8,                                      !- Hour 2
  0,                                      !- Minute 2
  0.1,                                    !- Value Until Time 2
  9,                                      !- Hour 3
  0,                                      !- Minute 3
  0.2,                                    !- Value Until Time 3
  11,                                     !- Hour 4
  0,                                      !- Minute 4
  0.5,                                    !- Value Until Time 4
  15,                                     !- Hour 5
  0,                                      !- Minute 5
  0.7,                                    !- Value Until Time 5
  16,                                     !- Hour 6
  0,                                      !- Minute 6
  0.8,                                    !- Value Until Time 6
  17,                                     !- Hour 7
  0,                                      !- Minute 7
  0.7,                                    !- Value Until Time 7
  19,                                     !- Hour 8
  0,                                      !- Minute 8
  0.5,                                    !- Value Until Time 8
  21,                                     !- Hour 9
  0,                                      !- Minute 9
  0.3,                                    !- Value Until Time 9
  24,                                     !- Hour 10
  0,                                      !- Minute 10
  0;                                      !- Value Until Time 10

OS:Schedule:Day,
  {dc3222ec-f3ff-4e38-83ff-0e218d113c3a}, !- Handle
  0700|2100|Retail|default|occ Summer Design Day, !- Name
  {93627a45-1d8a-4612-840f-414f361a19c1}, !- Schedule Type Limits Name
  ,                                       !- Interpolate to Timestep
  7,                                      !- Hour 1
  0,                                      !- Minute 1
  0,                                      !- Value Until Time 1
  8,                                      !- Hour 2
  0,                                      !- Minute 2
  0.1,                                    !- Value Until Time 2
  9,                                      !- Hour 3
  0,                                      !- Minute 3
  0.2,                                    !- Value Until Time 3
  21,                                     !- Hour 4
  0,                                      !- Minute 4
  1,                                      !- Value Until Time 4
  24,                                     !- Hour 5
  0,                                      !- Minute 5
  0;                                      !- Value Until Time 5

OS:Schedule:Day,
  {2a4aed25-a28d-4949-ab9a-00cb75bc76ff}, !- Handle
  0700|2100|Retail|default|occ Winter Design Day, !- Name
  {93627a45-1d8a-4612-840f-414f361a19c1}, !- Schedule Type Limits Name
  ,                                       !- Interpolate to Timestep
  24,                                     !- Hour 1
  0,                                      !- Minute 1
  0;                                      !- Value Until Time 1

OS:Schedule:Rule,
  {dc15f07b-3597-4b8d-b794-30e2461a35b4}, !- Handle
  0700|2100|Retail|default|occ |1/1-12/31|Sat Rule, !- Name
  {a205544b-3ac0-4bf3-a57f-1931dd612bf2}, !- Schedule Ruleset Name
  0,                                      !- Rule Order
  {fa1aaf10-399a-475b-9fdf-0fe5ce429fa5}, !- Day Schedule Name
  ,                                       !- Apply Sunday
  ,                                       !- Apply Monday
  ,                                       !- Apply Tuesday
  ,                                       !- Apply Wednesday
  ,                                       !- Apply Thursday
  ,                                       !- Apply Friday
  Yes,                                    !- Apply Saturday
  ,                                       !- Apply Holiday
  DateRange,                              !- Date Specification Type
  1,                                      !- Start Month
  1,                                      !- Start Day
  12,                                     !- End Month
  31;                                     !- End Day

OS:Schedule:Day,
  {fa1aaf10-399a-475b-9fdf-0fe5ce429fa5}, !- Handle
  0700|2100|Retail|default|occ |1/1-12/31|Sat, !- Name
  {93627a45-1d8a-4612-840f-414f361a19c1}, !- Schedule Type Limits Name
  ,                                       !- Interpolate to Timestep
  7,                                      !- Hour 1
  0,                                      !- Minute 1
  0,                                      !- Value Until Time 1
  8,                                      !- Hour 2
  0,                                      !- Minute 2
  0.1,                                    !- Value Until Time 2
  9,                                      !- Hour 3
  0,                                      !- Minute 3
  0.2,                                    !- Value Until Time 3
  10,                                     !- Hour 4
  0,                                      !- Minute 4
  0.5,                                    !- Value Until Time 4
  11,                                     !- Hour 5
  0,                                      !- Minute 5
  0.6,                                    !- Value Until Time 5
  17,                                     !- Hour 6
  0,                                      !- Minute 6
  0.8,                                    !- Value Until Time 6
  18,                                     !- Hour 7
  0,                                      !- Minute 7
  0.6,                                    !- Value Until Time 7
  21,                                     !- Hour 8
  0,                                      !- Minute 8
  0.2,                                    !- Value Until Time 8
  22,                                     !- Hour 9
  0,                                      !- Minute 9
  0.1,                                    !- Value Until Time 9
  24,                                     !- Hour 10
  0,                                      !- Minute 10
  0;                                      !- Value Until Time 10

OS:Schedule:Rule,
  {4074fd1b-9289-4e6c-93a3-a20643f43b1a}, !- Handle
  0700|2100|Retail|default|occ |1/1-12/31|Sun Rule, !- Name
  {a205544b-3ac0-4bf3-a57f-1931dd612bf2}, !- Schedule Ruleset Name
  1,                                      !- Rule Order
  {409956de-dc9c-4fd2-a127-3884231471e4}, !- Day Schedule Name
  Yes,                                    !- Apply Sunday
  ,                                       !- Apply Monday
  ,                                       !- Apply Tuesday
  ,                                       !- Apply Wednesday
  ,                                       !- Apply Thursday
  ,                                       !- Apply Friday
  ,                                       !- Apply Saturday
  ,                                       !- Apply Holiday
  DateRange,                              !- Date Specification Type
  1,                                      !- Start Month
  1,                                      !- Start Day
  12,                                     !- End Month
  31;                                     !- End Day

OS:Schedule:Day,
  {409956de-dc9c-4fd2-a127-3884231471e4}, !- Handle
  0700|2100|Retail|default|occ |1/1-12/31|Sun, !- Name
  {93627a45-1d8a-4612-840f-414f361a19c1}, !- Schedule Type Limits Name
  ,                                       !- Interpolate to Timestep
  9,                                      !- Hour 1
  0,                                      !- Minute 1
  0,                                      !- Value Until Time 1
  10,                                     !- Hour 2
  0,                                      !- Minute 2
  0.1,                                    !- Value Until Time 2
  12,                                     !- Hour 3
  0,                                      !- Minute 3
  0.2,                                    !- Value Until Time 3
  17,                                     !- Hour 4
  0,                                      !- Minute 4
  0.4,                                    !- Value Until Time 4
  18,                                     !- Hour 5
  0,                                      !- Minute 5
  0.2,                                    !- Value Until Time 5
  19,                                     !- Hour 6
  0,                                      !- Minute 6
  0.1,                                    !- Value Until Time 6
  24,                                     !- Hour 7
  0,                                      !- Minute 7
  0;                                      !- Value Until Time 7

OS:Schedule:Ruleset,
  {f6ae47f7-548d-454d-b306-b8ab68061e2f}, !- Handle
  0700|2100|Retail|default|clothing,      !- Name
  {00167770-c60e-4dff-88a6-adb132949262}, !- Schedule Type Limits Name
  {46bbd81e-a0c4-4e4b-939d-a36ee01962ca}, !- Default Day Schedule Name
  {df22f959-8317-41ab-a53c-b599462a0060}, !- Summer Design Day Schedule Name
  {2c13b5aa-3fff-420a-a80d-6c46db20b894}; !- Winter Design Day Schedule Name

OS:ScheduleTypeLimits,
  {00167770-c60e-4dff-88a6-adb132949262}, !- Handle
  Dimensionless Schedule Type Limits,     !- Name
  ,                                       !- Lower Limit Value {BasedOnField A4}
  ,                                       !- Upper Limit Value {BasedOnField A4}
  Continuous,                             !- Numeric Type
  Dimensionless;                          !- Unit Type

OS:Schedule:Day,
  {46bbd81e-a0c4-4e4b-939d-a36ee01962ca}, !- Handle
  0700|2100|Retail|default|clothing |default, !- Name
  {00167770-c60e-4dff-88a6-adb132949262}, !- Schedule Type Limits Name
  ,                                       !- Interpolate to Timestep
  24,                                     !- Hour 1
  0,                                      !- Minute 1
  1;                                      !- Value Until Time 1

OS:Schedule:Day,
  {df22f959-8317-41ab-a53c-b599462a0060}, !- Handle
  0700|2100|Retail|default|clothing Summer Design Day, !- Name
  {00167770-c60e-4dff-88a6-adb132949262}, !- Schedule Type Limits Name
  ,                                       !- Interpolate to Timestep
  24,                                     !- Hour 1
  0,                                      !- Minute 1
  1;                                      !- Value Until Time 1

OS:Schedule:Day,
  {2c13b5aa-3fff-420a-a80d-6c46db20b894}, !- Handle
  0700|2100|Retail|default|clothing Winter Design Day, !- Name
  {00167770-c60e-4dff-88a6-adb132949262}, !- Schedule Type Limits Name
  ,                                       !- Interpolate to Timestep
  24,                                     !- Hour 1
  0,                                      !- Minute 1
  1;                                      !- Value Until Time 1

OS:Schedule:Rule,
  {5f3c2c7f-6cab-4149-bacc-628313103e4d}, !- Handle
  0700|2100|Retail|default|clothing |5/1-9/30|Mon/Tue/Wed/Thu/Fri/Sat/Sun Rule, !- Name
  {f6ae47f7-548d-454d-b306-b8ab68061e2f}, !- Schedule Ruleset Name
  0,                                      !- Rule Order
  {bd8543e3-0da0-4ab0-b670-6cfd1ed8d4bd}, !- Day Schedule Name
  Yes,                                    !- Apply Sunday
  Yes,                                    !- Apply Monday
  Yes,                                    !- Apply Tuesday
  Yes,                                    !- Apply Wednesday
  Yes,                                    !- Apply Thursday
  Yes,                                    !- Apply Friday
  Yes,                                    !- Apply Saturday
  ,                                       !- Apply Holiday
  DateRange,                              !- Date Specification Type
  5,                                      !- Start Month
  1,                                      !- Start Day
  9,                                      !- End Month
  30;                                     !- End Day

OS:Schedule:Day,
  {bd8543e3-0da0-4ab0-b670-6cfd1ed8d4bd}, !- Handle
  0700|2100|Retail|default|clothing |5/1-9/30|Mon/Tue/Wed/Thu/Fri/Sat/Sun, !- Name
  {00167770-c60e-4dff-88a6-adb132949262}, !- Schedule Type Limits Name
  ,                                       !- Interpolate to Timestep
  24,                                     !- Hour 1
  0,                                      !- Minute 1
  0.5;                                    !- Value Until Time 1

OS:Schedule:Rule,
  {9ee53ce8-6404-4b8a-8c28-c564e89e2c85}, !- Handle
  0700|2100|Retail|default|clothing |10/1-12/31|Mon/Tue/Wed/Thu/Fri/Sat/Sun Rule, !- Name
  {f6ae47f7-548d-454d-b306-b8ab68061e2f}, !- Schedule Ruleset Name
  1,                                      !- Rule Order
  {66457c68-49b9-40ab-8e90-a6b45c2c252b}, !- Day Schedule Name
  Yes,                                    !- Apply Sunday
  Yes,                                    !- Apply Monday
  Yes,                                    !- Apply Tuesday
  Yes,                                    !- Apply Wednesday
  Yes,                                    !- Apply Thursday
  Yes,                                    !- Apply Friday
  Yes,                                    !- Apply Saturday
  ,                                       !- Apply Holiday
  DateRange,                              !- Date Specification Type
  10,                                     !- Start Month
  1,                                      !- Start Day
  12,                                     !- End Month
  31;                                     !- End Day

OS:Schedule:Day,
  {66457c68-49b9-40ab-8e90-a6b45c2c252b}, !- Handle
  0700|2100|Retail|default|clothing |10/1-12/31|Mon/Tue/Wed/Thu/Fri/Sat/Sun, !- Name
  {00167770-c60e-4dff-88a6-adb132949262}, !- Schedule Type Limits Name
  ,                                       !- Interpolate to Timestep
  24,                                     !- Hour 1
  0,                                      !- Minute 1
  1;                                      !- Value Until Time 1

OS:Schedule:Ruleset,
  {872dbee8-5e44-4fea-9b2f-b1525969f905}, !- Handle
  0700|2100|Retail|default|ext_lighting,  !- Name
  {e1f008ac-d0dd-41ef-a133-8f93c6391567}, !- Schedule Type Limits Name
  {655ac4d7-31c6-4826-9c82-d236d1a54755}, !- Default Day Schedule Name
  {ba3b9c0e-bd66-4f67-9b90-df63cd0ecaf7}, !- Summer Design Day Schedule Name
  {c6a4db92-767e-4d83-89bf-c353218fcda7}; !- Winter Design Day Schedule Name

OS:ScheduleTypeLimits,
  {e1f008ac-d0dd-41ef-a133-8f93c6391567}, !- Handle
  Lights Schedule Type Limits,            !- Name