
OS:Version,
  {8f96caf2-c464-4329-b583-36ee1a9f0429}, !- Handle
  1.6.0;                                  !- Version Identifier

OS:ClimateZones,
  {135edfab-17e7-40db-a436-27d385a8cd6d}, !- Handle
  ,                                       !- Active Institution
  ,                                       !- Active Year
  ASHRAE,                                 !- Climate Zone Institution Name 1
  ANSI/ASHRAE Standard 169,               !- Climate Zone Document Name 1
  2006,                                   !- Climate Zone Document Year 1
  ,                                       !- Climate Zone Value 1
  CEC,                                    !- Climate Zone Institution Name 2
  California Climate Zone Descriptions,   !- Climate Zone Document Name 2
  1995,                                   !- Climate Zone Document Year 2
  ;                                       !- Climate Zone Value 2

OS:YearDescription,
  {513d8dda-86cb-442a-b01c-1f7f0e0ac70e}; !- Handle

OS:RadianceParameters,
  {270a96f1-3c86-4b75-a667-cdf22790e2c8}, !- Handle
  1,                                      !- Accumulated Rays per Record
  0,                                      !- Direct Threshold
  1,                                      !- Direct Certainty
  1,                                      !- Direct Jitter
  1,                                      !- Direct Pretest
  6,                                      !- Ambient Bounces VMX
  2,                                      !- Ambient Bounces DMX
  4050,                                   !- Ambient Divisions VMX
  512,                                    !- Ambient Divisions DMX
  256,                                    !- Ambient Supersamples
  0.001,                                  !- Limit Weight VMX
  0.001,                                  !- Limit Weight DMX
  500,                                    !- Klems Sampling Density
  146;                                    !- Sky Discretization Resolution

OS:SimulationControl,
  {2c487a4c-bac9-4ac5-b669-1e49d9da7c2b}, !- Handle
  ,                                       !- Do Zone Sizing Calculation
  ,                                       !- Do System Sizing Calculation
  ,                                       !- Do Plant Sizing Calculation
  No,                                     !- Run Simulation for Sizing Periods
  ,                                       !- Run Simulation for Weather File Run Periods
  0.04,                                   !- Loads Convergence Tolerance Value
  ,                                       !- Temperature Convergence Tolerance Value {deltaC}
  ,                                       !- Solar Distribution
  ,                                       !- Maximum Number of Warmup Days
  2;                                      !- Minimum Number of Warmup Days

OS:Sizing:Parameters,
  {dde5af6f-7923-4600-a28a-7556673a0266}, !- Handle
  1.25,                                   !- Heating Sizing Factor
  1.15;                                   !- Cooling Sizing Factor

OS:ProgramControl,
  {05027a99-f2b3-4aeb-afc6-1425fbb4371d}; !- Handle

OS:Timestep,
  {4ebc9f1e-4707-402e-9844-67eb1ffbd522}, !- Handle
  2;                                      !- Number of Timesteps per Hour

OS:OutputControl:ReportingTolerances,
  {65797aa2-06a9-45fe-b69d-bc6e060399d3}; !- Handle

OS:ConvergenceLimits,
  {9fc11aba-8822-4f3d-970c-46391ba4040d}; !- Handle

OS:ShadowCalculation,
  {ca758bea-4416-4626-9bba-3d8795c79bd6}, !- Handle
  7,                                      !- Calculation Frequency
  15000;                                  !- Maximum Figures in Shadow Overlap Calculations

OS:SurfaceConvectionAlgorithm:Inside,
  {aaabfc36-718a-4ab0-b622-f186ebb45230}, !- Handle
  TARP;                                   !- Algorithm

OS:SurfaceConvectionAlgorithm:Outside,
  {9a0a9f6f-4bbd-4b12-a121-9492a1fcd7d6}, !- Handle
  DOE-2;                                  !- Algorithm

OS:HeatBalanceAlgorithm,
  {9d93e563-e1e0-46d7-9e39-d1c8aceb7212}, !- Handle
  ConductionTransferFunction,             !- Algorithm
  200;                                    !- Surface Temperature Upper Limit {F}

OS:ZoneAirHeatBalanceAlgorithm,
  {8520d93e-310f-4696-9bcd-36228bfdd743}, !- Handle
  AnalyticalSolution;                     !- Algorithm

OS:ZoneAirContaminantBalance,
  {eb5fc3ae-fb22-4160-8fcb-3e3b22b000d3}; !- Handle

OS:ZoneCapacitanceMultiplier:ResearchSpecial,
  {4020ce4f-5a7a-4849-8028-8305d7b751b1}, !- Handle
  ,                                       !- Temperature Capacity Multiplier
  ,                                       !- Humidity Capacity Multiplier
  ;                                       !- Carbon Dioxide Capacity Multiplier

OS:RunPeriod,
  {28df894d-6af9-4fb8-8f56-df1753344aa3}, !- Handle
  Run Period 1,                           !- Name
  1,                                      !- Begin Month
  1,                                      !- Begin Day of Month
  12,                                     !- End Month
  31,                                     !- End Day of Month
  ,                                       !- Use Weather File Holidays and Special Days
  ,                                       !- Use Weather File Daylight Saving Period
  ,                                       !- Apply Weekend Holiday Rule
  ,                                       !- Use Weather File Rain Indicators
  ,                                       !- Use Weather File Snow Indicators
  ;                                       !- Number of Times Runperiod to be Repeated

OS:Building,
  {bf305633-c5a1-4881-9edf-ca5e1a8e1274}, !- Handle
  Building 1,                             !- Name
  ,                                       !- Building Sector Type
  ,                                       !- North Axis {deg}
  ,                                       !- Nominal Floor to Floor Height {m}
  ,                                       !- Space Type Name
  ,                                       !- Default Construction Set Name
  {63c3aff6-018f-4ee9-8cf5-942802b151ac}, !- Default Schedule Set Name
  ,                                       !- Standards Number of Stories
  ,                                       !- Standards Number of Above Ground Stories
  Retail;                                 !- Standards Building Type

OS:LifeCycleCost:Parameters,
  {231cf8a0-f0e7-4251-a99f-11f0d464e661}, !- Handle
  FEMP,                                   !- Analysis Type
  ,                                       !- Discounting Convention
  ,                                       !- Inflation Approach
  ,                                       !- Real Discount Rate
  ,                                       !- Nominal Discount Rate
  ,                                       !- Inflation
  ,                                       !- Base Date Month
  ,                                       !- Base Date Year
  ,                                       !- Service Date Month
  ,                                       !- Service Date Year
  ,                                       !- Length of Study Period in Years
  ,                                       !- Tax Rate
  ,                                       !- Depreciation Method
  Yes;                                    !- Use NIST Fuel Escalation Rates

OS:Facility,
  {3ba8e45b-b833-44eb-a723-ea6c3946dc96}; !- Handle

OS:SpaceType,
  {72a38cd6-40c8-4af5-ad8f-584c294d3561}, !- Handle
  Retail|Retail|DOE Ref 1980-2004|ASHRAE 169-2006-5A, !- Name
  {0861e002-0be4-4d99-b157-ec2aa150111d}, !- Default Construction Set Name
  {a3482383-ecc2-42a8-a84e-2b9156dea695}, !- Default Schedule Set Name
  {08a62e12-c5fc-43ec-8901-50a8929a8f1e}, !- Group Rendering Name
  {0b6b7708-30ca-401c-9df0-a2f0b127b4b7}, !- Design Specification Outdoor Air Object Name
  Retail,                                 !- Standards Building Type
  Retail;                                 !- Standards Space Type

OS:Rendering:Color,
  {08a62e12-c5fc-43ec-8901-50a8929a8f1e}, !- Handle
  Rendering Color 1,                      !- Name
  171,                                    !- Rendering Red Value
  222,                                    !- Rendering Green Value
  78;                                     !- Rendering Blue Value

OS:SpaceType,
  {4e2f754d-3678-417c-b5b8-fe359b050d64}, !- Handle
  Retail|BackSpace|DOE Ref 1980-2004|ASHRAE 169-2006-5A, !- Name
  {0861e002-0be4-4d99-b157-ec2aa150111d}, !- Default Construction Set Name
  {eca264ff-1052-4d0e-8984-6b4744382d1b}, !- Default Schedule Set Name
  {107c7d18-169c-40dc-a609-c596c58f9cab}, !- Group Rendering Name
  {5cd5bd20-cd65-46f0-b50b-39b4797d8dba}, !- Design Specification Outdoor Air Object Name
  Retail,                                 !- Standards Building Type
  BackSpace;                              !- Standards Space Type

OS:Rendering:Color,
  {107c7d18-169c-40dc-a609-c596c58f9cab}, !- Handle
  Rendering Color 2,                      !- Name
  120,                                    !- Rendering Red Value
  149,                                    !- Rendering Green Value
  230;                                    !- Rendering Blue Value

OS:SpaceType,
  {bb955b69-41a0-4351-bafc-bf0742086f4a}, !- Handle
  Retail|BlendFront|DOE Ref 1980-2004|ASHRAE 169-2006-5A, !- Name
  {0861e002-0be4-4d99-b157-ec2aa150111d}, !- Default Construction Set Name
  ,                                       !- Default Schedule Set Name
  {437d3d3a-2a62-4662-bd1a-6a43b52312da}, !- Group Rendering Name
  {c4dcf6a4-1267-4ce0-8dca-dd04b4b66603}, !- Design Specification Outdoor Air Object Name
  Retail,                                 !- Standards Building Type
  BlendFront;                             !- Standards Space Type

OS:Rendering:Color,
  {437d3d3a-2a62-4662-bd1a-6a43b52312da}, !- Handle
  Rendering Color 3,                      !- Name
  171,                                    !- Rendering Red Value
  222,                                    !- Rendering Green Value
  78;                                     !- Rendering Blue Value

OS:Schedule:Ruleset,
  {29fa5ac5-d2bc-4a59-bb78-89698b60c8dc}, !- Handle
  0700|2100|Retail|default|hoo,           !- Name
  {77359777-9375-42aa-a076-1c9279b74e35}, !- Schedule Type Limits Name
  {079535de-20d4-405d-b439-a32d2fac9d0c}, !- Default Day Schedule Name
  {01a0562a-4bf9-4743-bf86-6bad1e08d5e1}, !- Summer Design Day Schedule Name
  {46d985e3-51c7-4eae-a383-56c8ef6d180b}; !- Winter Design Day Schedule Name

OS:Schedule:Day,
  {079535de-20d4-405d-b439-a32d2fac9d0c}, !- Handle
  0700|2100|Retail|default|hoo Schedule Week Day, !- Name
  {77359777-9375-42aa-a076-1c9279b74e35}, !- Schedule Type Limits Name
  ,                                       !- Interpolate to Timestep
  7,                                      !- Hour 1
  0,                                      !- Minute 1
  0,                                      !- Value Until Time 1
  21,                                     !- Hour 2
  0,                                      !- Minute 2
  1,                                      !- Value Until Time 2
  24,                                     !- Hour 3
  0,                                      !- Minute 3
  0;                                      !- Value Until Time 3

OS:Schedule:Day,
  {d1f4e9ea-28aa-4408-a12b-42c7ec636610}, !- Handle
  Schedule Day 2,                         !- Name
  ,                                       !- Schedule Type Limits Name
  ,                                       !- Interpolate to Timestep
  24,                                     !- Hour 1
  0,                                      !- Minute 1
  0;                                      !- Value Until Time 1

OS:Schedule:Day,
  {46d985e3-51c7-4eae-a383-56c8ef6d180b}, !- Handle
  0700|2100|Retail|default|hoo Winter Design Day, !- Name
  {77359777-9375-42aa-a076-1c9279b74e35}, !- Schedule Type Limits Name
  ,                                       !- Interpolate to Timestep
  24,                                     !- Hour 1
  0,                                      !- Minute 1
  0;                                      !- Value Until Time 1

OS:Schedule:Day,
  {1dd1bc6c-286e-423e-8077-03dc2c69dfae}, !- Handle
  Schedule Day 3,                         !- Name
  ,                                       !- Schedule Type Limits Name
  ,                                       !- Interpolate to Timestep
  24,                                     !- Hour 1
  0,                                      !- Minute 1
  0;                                      !- Value Until Time 1

OS:Schedule:Day,
  {01a0562a-4bf9-4743-bf86-6bad1e08d5e1}, !- Handle
  0700|2100|Retail|default|hoo Summer Design Day, !- Name
  {77359777-9375-42aa-a076-1c9279b74e35}, !- Schedule Type Limits Name
  ,                                       !- Interpolate to Timestep
  24,                                     !- Hour 1
  0,                                      !- Minute 1
  1;                                      !- Value Until Time 1

OS:DefaultScheduleSet,
  {63c3aff6-018f-4ee9-8cf5-942802b151ac}, !- Handle
  Building Hours of Operation,            !- Name
  {29fa5ac5-d2bc-4a59-bb78-89698b60c8dc}, !- Hours of Operation Schedule Name
  ,                                       !- Number of People Schedule Name
  ,                                       !- People Activity Level Schedule Name
  ,                                       !- Lighting Schedule Name
  ,                                       !- Electric Equipment Schedule Name
  ,                                       !- Gas Equipment Schedule Name
  ,                                       !- Hot Water Equipment Schedule Name
  ,                                       !- Infiltration Schedule Name
  ,                                       !- Steam Equipment Schedule Name
  ;                                       !- Other Equipment Schedule Name

OS:ScheduleTypeLimits,
  {77359777-9375-42aa-a076-1c9279b74e35}, !- Handle
  OnOff,                                  !- Name
  0,                                      !- Lower Limit Value {BasedOnField A4}
  1,                                      !- Upper Limit Value {BasedOnField A4}
  Discrete,                               !- Numeric Type
  Availability;                           !- Unit Type

OS:Schedule:Ruleset,
  {5d5d2332-3728-4455-a541-dcc78c584aee}, !- Handle
  0700|2100|Retail|default|occ,           !- Name
  {39c8dd42-cafd-4ffd-97d2-026125f14e72}, !- Schedule Type Limits Name
  {8efab060-c4e6-4aa4-a067-78ddb4398b03}, !- Default Day Schedule Name
  {42e1b215-61c3-40fa-9b80-2dd553dab7c9}, !- Summer Design Day Schedule Name
  {9736657d-8370-4f37-88a8-6e186bbe9766}; !- Winter Design Day Schedule Name

OS:ScheduleTypeLimits,
  {39c8dd42-cafd-4ffd-97d2-026125f14e72}, !- Handle
  Occupancy Schedule Type Limits,         !- Name
  0,                                      !- Lower Limit Value {BasedOnField A4}
  1,                                      !- Upper Limit Value {BasedOnField A4}
  Continuous,                             !- Numeric Type
  Dimensionless;                          !- Unit Type

OS:Schedule:Day,
  {8efab060-c4e6-4aa4-a067-78ddb4398b03}, !- Handle
  0700|2100|Retail|default|occ |default,  !- Name
  {39c8dd42-cafd-4ffd-97d2-026125f14e72}, !- Schedule Type Limits Name
  ,                                       !- Interpolate to Timestep
  7,                                      !- Hour 1
  0,                                      !- Minute 1
  0,                                      !- Value Until Time 1
  8,                                      !- Hour 2
  0,                                      !- Minute 2
  0.1,                                    !- Value Until Time 2
  9,                                      !- Hour 3
  0,                                      !- Minute 3
  0.2,                                    !- Value Until Time 3
  11,                                     !- Hour 4
  0,                                      !- Minute 4
  0.5,                                    !- Value Until Time 4
  15,                                     !- Hour 5
  0,                                      !- Minute 5
  0.7,                                    !- Value Until Time 5
  16,                                     !- Hour 6
  0,                                      !- Minute 6
  0.8,                                    !- Value Until Time 6
  17,                                     !- Hour 7
  0,                                      !- Minute 7
  0.7,                                    !- Value Until Time 7
  19,                                     !- Hour 8
  0,                                      !- Minute 8
  0.5,                                    !- Value Until Time 8
  21,                                     !- Hour 9
  0,                                      !- Minute 9
  0.3,                                    !- Value Until Time 9
  24,                                     !- Hour 10
  0,                                      !- Minute 10
  0;                                      !- Value Until Time 10

OS:Schedule:Day,
  {42e1b215-61c3-40fa-9b80-2dd553dab7c9}, !- Handle
  0700|2100|Retail|default|occ Summer Design Day, !- Name
  {39c8dd42-cafd-4ffd-97d2-026125f14e72}, !- Schedule Type Limits Name
  ,                                       !- Interpolate to Timestep
  7,                                      !- Hour 1
  0,                                      !- Minute 1
  0,                                      !- Value Until Time 1
  8,                                      !- Hour 2
  0,                                      !- Minute 2
  0.1,                                    !- Value Until Time 2
  9,                                      !- Hour 3
  0,                                      !- Minute 3
  0.2,                                    !- Value Until Time 3
  21,                                     !- Hour 4
  0,                                      !- Minute 4
  1,                                      !- Value Until Time 4
  24,                                     !- Hour 5
  0,                                      !- Minute 5
  0;                                      !- Value Until Time 5

OS:Schedule:Day,
  {9736657d-8370-4f37-88a8-6e186bbe9766}, !- Handle
  0700|2100|Retail|default|occ Winter Design Day, !- Name
  {39c8dd42-cafd-4ffd-97d2-026125f14e72}, !- Schedule Type Limits Name
  ,                                       !- Interpolate to Timestep
  24,                                     !- Hour 1
  0,                                      !- Minute 1
  0;                                      !- Value Until Time 1

OS:Schedule:Rule,
  {d4448393-0dac-46f4-81f6-ac5ec400d0d8}, !- Handle
  0700|2100|Retail|default|occ |1/1-12/31|Sat Rule, !- Name
  {5d5d2332-3728-4455-a541-dcc78c584aee}, !- Schedule Ruleset Name
  0,                                      !- Rule Order
  {643ab216-895b-4949-88d1-812e878d26a3}, !- Day Schedule Name
  ,                                       !- Apply Sunday
  ,                                       !- Apply Monday
  ,                                       !- Apply Tuesday
  ,                                       !- Apply Wednesday
  ,                                       !- Apply Thursday
  ,                                       !- Apply Friday
  Yes,                                    !- Apply Saturday
  ,                                       !- Apply Holiday
  DateRange,                              !- Date Specification Type
  1,                                      !- Start Month
  1,                                      !- Start Day
  12,                                     !- End Month
  31;                                     !- End Day

OS:Schedule:Day,
  {643ab216-895b-4949-88d1-812e878d26a3}, !- Handle
  0700|2100|Retail|default|occ |1/1-12/31|Sat, !- Name
  {39c8dd42-cafd-4ffd-97d2-026125f14e72}, !- Schedule Type Limits Name
  ,                                       !- Interpolate to Timestep
  7,                                      !- Hour 1
  0,                                      !- Minute 1
  0,                                      !- Value Until Time 1
  8,                                      !- Hour 2
  0,                                      !- Minute 2
  0.1,                                    !- Value Until Time 2
  9,                                      !- Hour 3
  0,                                      !- Minute 3
  0.2,                                    !- Value Until Time 3
  10,                                     !- Hour 4
  0,                                      !- Minute 4
  0.5,                                    !- Value Until Time 4
  11,                                     !- Hour 5
  0,                                      !- Minute 5
  0.6,                                    !- Value Until Time 5
  17,                                     !- Hour 6
  0,                                      !- Minute 6
  0.8,                                    !- Value Until Time 6
  18,                                     !- Hour 7
  0,                                      !- Minute 7
  0.6,                                    !- Value Until Time 7
  21,                                     !- Hour 8
  0,                                      !- Minute 8
  0.2,                                    !- Value Until Time 8
  22,                                     !- Hour 9
  0,                                      !- Minute 9
  0.1,                                    !- Value Until Time 9
  24,                                     !- Hour 10
  0,                                      !- Minute 10
  0;                                      !- Value Until Time 10

OS:Schedule:Rule,
  {829644ec-4aa5-4b1c-9583-e029725b114f}, !- Handle
  0700|2100|Retail|default|occ |1/1-12/31|Sun Rule, !- Name
  {5d5d2332-3728-4455-a541-dcc78c584aee}, !- Schedule Ruleset Name
  1,                                      !- Rule Order
  {e590962e-59d8-4bca-abf6-3a797f295987}, !- Day Schedule Name
  Yes,                                    !- Apply Sunday
  ,                                       !- Apply Monday
  ,                                       !- Apply Tuesday
  ,                                       !- Apply Wednesday
  ,                                       !- Apply Thursday
  ,                                       !- Apply Friday
  ,                                       !- Apply Saturday
  ,                                       !- Apply Holiday
  DateRange,                              !- Date Specification Type
  1,                                      !- Start Month
  1,                                      !- Start Day
  12,                                     !- End Month
  31;                                     !- End Day

OS:Schedule:Day,
  {e590962e-59d8-4bca-abf6-3a797f295987}, !- Handle
  0700|2100|Retail|default|occ |1/1-12/31|Sun, !- Name
  {39c8dd42-cafd-4ffd-97d2-026125f14e72}, !- Schedule Type Limits Name
  ,                                       !- Interpolate to Timestep
  9,                                      !- Hour 1
  0,                                      !- Minute 1
  0,                                      !- Value Until Time 1
  10,                                     !- Hour 2
  0,                                      !- Minute 2
  0.1,                                    !- Value Until Time 2
  12,                                     !- Hour 3
  0,                                      !- Minute 3
  0.2,                                    !- Value Until Time 3
  17,                                     !- Hour 4
  0,                                      !- Minute 4
  0.4,                                    !- Value Until Time 4
  18,                                     !- Hour 5
  0,                                      !- Minute 5
  0.2,                                    !- Value Until Time 5
  19,                                     !- Hour 6
  0,                                      !- Minute 6
  0.1,                                    !- Value Until Time 6
  24,                                     !- Hour 7
  0,                                      !- Minute 7
  0;                                      !- Value Until Time 7

OS:Schedule:Ruleset,
  {ce3a28c1-9392-4e94-ab92-177e2a48bcd7}, !- Handle
  0700|2100|Retail|default|clothing,      !- Name
  {7cd8747d-1657-4efc-980b-126cceb0810d}, !- Schedule Type Limits Name
  {5c743e68-47f7-46a5-af5d-1eabb14c8ffb}, !- Default Day Schedule Name
  {3569a067-da00-4b1a-b620-27170eafb0c2}, !- Summer Design Day Schedule Name
  {a2b7e38d-2f99-4f23-80af-13c967db6005}; !- Winter Design Day Schedule Name

OS:ScheduleTypeLimits,
  {7cd8747d-1657-4efc-980b-126cceb0810d}, !- Handle
  Dimensionless Schedule Type Limits,     !- Name
  ,                                       !- Lower Limit Value {BasedOnField A4}
  ,                                       !- Upper Limit Value {BasedOnField A4}
  Continuous,                             !- Numeric Type
  Dimensionless;                          !- Unit Type

OS:Schedule:Day,
  {5c743e68-47f7-46a5-af5d-1eabb14c8ffb}, !- Handle
  0700|2100|Retail|default|clothing |default, !- Name
  {7cd8747d-1657-4efc-980b-126cceb0810d}, !- Schedule Type Limits Name
  ,                                       !- Interpolate to Timestep
  24,                                     !- Hour 1
  0,                                      !- Minute 1
  1;                                      !- Value Until Time 1

OS:Schedule:Day,
  {3569a067-da00-4b1a-b620-27170eafb0c2}, !- Handle
  0700|2100|Retail|default|clothing Summer Design Day, !- Name
  {7cd8747d-1657-4efc-980b-126cceb0810d}, !- Schedule Type Limits Name
  ,                                       !- Interpolate to Timestep
  24,                                     !- Hour 1
  0,                                      !- Minute 1
  1;                                      !- Value Until Time 1

OS:Schedule:Day,
  {a2b7e38d-2f99-4f23-80af-13c967db6005}, !- Handle
  0700|2100|Retail|default|clothing Winter Design Day, !- Name
  {7cd8747d-1657-4efc-980b-126cceb0810d}, !- Schedule Type Limits Name
  ,                                       !- Interpolate to Timestep
  24,                                     !- Hour 1
  0,                                      !- Minute 1
  1;                                      !- Value Until Time 1

OS:Schedule:Rule,
  {2fccc4ee-43ee-40d0-8e67-3fb41c24964c}, !- Handle
  0700|2100|Retail|default|clothing |5/1-9/30|Mon/Tue/Wed/Thu/Fri/Sat/Sun Rule, !- Name
  {ce3a28c1-9392-4e94-ab92-177e2a48bcd7}, !- Schedule Ruleset Name
  0,                                      !- Rule Order
  {4ef46415-6bd6-4e74-8e4c-b881b99cfa44}, !- Day Schedule Name
  Yes,                                    !- Apply Sunday
  Yes,                                    !- Apply Monday
  Yes,                                    !- Apply Tuesday
  Yes,                                    !- Apply Wednesday
  Yes,                                    !- Apply Thursday
  Yes,                                    !- Apply Friday
  Yes,                                    !- Apply Saturday
  ,                                       !- Apply Holiday
  DateRange,                              !- Date Specification Type
  5,                                      !- Start Month
  1,                                      !- Start Day
  9,                                      !- End Month
  30;                                     !- End Day

OS:Schedule:Day,
  {4ef46415-6bd6-4e74-8e4c-b881b99cfa44}, !- Handle
  0700|2100|Retail|default|clothing |5/1-9/30|Mon/Tue/Wed/Thu/Fri/Sat/Sun, !- Name
  {7cd8747d-1657-4efc-980b-126cceb0810d}, !- Schedule Type Limits Name
  ,                                       !- Interpolate to Timestep
  24,                                     !- Hour 1
  0,                                      !- Minute 1
  0.5;                                    !- Value Until Time 1

OS:Schedule:Rule,
  {ca5473ce-d9d3-40c1-b181-0d851671d39a}, !- Handle
  0700|2100|Retail|default|clothing |10/1-12/31|Mon/Tue/Wed/Thu/Fri/Sat/Sun Rule, !- Name
  {ce3a28c1-9392-4e94-ab92-177e2a48bcd7}, !- Schedule Ruleset Name
  1,                                      !- Rule Order
  {cbe91c92-b77a-4650-9660-d3accb0845b4}, !- Day Schedule Name
  Yes,                                    !- Apply Sunday
  Yes,                                    !- Apply Monday
  Yes,                                    !- Apply Tuesday
  Yes,                                    !- Apply Wednesday
  Yes,                                    !- Apply Thursday
  Yes,                                    !- Apply Friday
  Yes,                                    !- Apply Saturday
  ,                                       !- Apply Holiday
  DateRange,                              !- Date Specification Type
  10,                                     !- Start Month
  1,                                      !- Start Day
  12,                                     !- End Month
  31;                                     !- End Day

OS:Schedule:Day,
  {cbe91c92-b77a-4650-9660-d3accb0845b4}, !- Handle
  0700|2100|Retail|default|clothing |10/1-12/31|Mon/Tue/Wed/Thu/Fri/Sat/Sun, !- Name
  {7cd8747d-1657-4efc-980b-126cceb0810d}, !- Schedule Type Limits Name
  ,                                       !- Interpolate to Timestep
  24,                                     !- Hour 1
  0,                                      !- Minute 1
  1;                                      !- Value Until Time 1

OS:Schedule:Ruleset,
  {28f2e4f5-7472-438b-9645-dd7a99571f00}, !- Handle
  0700|2100|Retail|default|ext_lighting,  !- Name
  {c5159690-bf4d-4ea2-9093-4e4da972b43e}, !- Schedule Type Limits Name
  {168dc9c3-3f7a-42b4-b7d1-c5b17707d8a4}, !- Default Day Schedule Name
  {ca9c32ec-a21d-4a52-894e-18a242b430ba}, !- Summer Design Day Schedule Name
  {a1db7c98-ee06-43fc-a005-051d9fac682a}; !- Winter Design Day Schedule Name

OS:ScheduleTypeLimits,
  {c5159690-bf4d-4ea2-9093-4e4da972b43e}, !- Handle
  Lights Schedule Type Limits,            !- Name