
OS:Version,
  {b55942bc-fcd4-426b-8032-367bc6fb01ac}, !- Handle
  1.5.5;                                  !- Version Identifier

OS:ClimateZones,
  {135edfab-17e7-40db-a436-27d385a8cd6d}, !- Handle
  ,                                       !- Active Institution
  ,                                       !- Active Year
  ASHRAE,                                 !- Climate Zone Institution Name 1
  ANSI/ASHRAE Standard 169,               !- Climate Zone Document Name 1
  2006,                                   !- Climate Zone Document Year 1
  ,                                       !- Climate Zone Value 1
  CEC,                                    !- Climate Zone Institution Name 2
  California Climate Zone Descriptions,   !- Climate Zone Document Name 2
  1995,                                   !- Climate Zone Document Year 2
  ;                                       !- Climate Zone Value 2

OS:YearDescription,
  {513d8dda-86cb-442a-b01c-1f7f0e0ac70e}; !- Handle

OS:RadianceParameters,
  {270a96f1-3c86-4b75-a667-cdf22790e2c8}, !- Handle
  1,                                      !- Accumulated Rays per Record
  0,                                      !- Direct Threshold
  1,                                      !- Direct Certainty
  1,                                      !- Direct Jitter
  1,                                      !- Direct Pretest
  6,                                      !- Ambient Bounces VMX
  2,                                      !- Ambient Bounces DMX
  4050,                                   !- Ambient Divisions VMX
  512,                                    !- Ambient Divisions DMX
  256,                                    !- Ambient Supersamples
  0.001,                                  !- Limit Weight VMX
  0.001,                                  !- Limit Weight DMX
  500,                                    !- Klems Sampling Density
  146;                                    !- Sky Discretization Resolution

OS:SimulationControl,
  {2c487a4c-bac9-4ac5-b669-1e49d9da7c2b}, !- Handle
  ,                                       !- Do Zone Sizing Calculation
  ,                                       !- Do System Sizing Calculation
  ,                                       !- Do Plant Sizing Calculation
  No,                                     !- Run Simulation for Sizing Periods
  ,                                       !- Run Simulation for Weather File Run Periods
  0.04,                                   !- Loads Convergence Tolerance Value
  ,                                       !- Temperature Convergence Tolerance Value {deltaC}
  ,                                       !- Solar Distribution
  ,                                       !- Maximum Number of Warmup Days
  2;                                      !- Minimum Number of Warmup Days

OS:Sizing:Parameters,
  {dde5af6f-7923-4600-a28a-7556673a0266}, !- Handle
  1.25,                                   !- Heating Sizing Factor
  1.15;                                   !- Cooling Sizing Factor

OS:ProgramControl,
  {05027a99-f2b3-4aeb-afc6-1425fbb4371d}; !- Handle

OS:Timestep,
  {4ebc9f1e-4707-402e-9844-67eb1ffbd522}, !- Handle
  2;                                      !- Number of Timesteps per Hour

OS:OutputControl:ReportingTolerances,
  {65797aa2-06a9-45fe-b69d-bc6e060399d3}; !- Handle

OS:ConvergenceLimits,
  {9fc11aba-8822-4f3d-970c-46391ba4040d}; !- Handle

OS:ShadowCalculation,
  {ca758bea-4416-4626-9bba-3d8795c79bd6}, !- Handle
  7,                                      !- Calculation Frequency
  15000;                                  !- Maximum Figures in Shadow Overlap Calculations

OS:SurfaceConvectionAlgorithm:Inside,
  {aaabfc36-718a-4ab0-b622-f186ebb45230}, !- Handle
  TARP;                                   !- Algorithm

OS:SurfaceConvectionAlgorithm:Outside,
  {9a0a9f6f-4bbd-4b12-a121-9492a1fcd7d6}, !- Handle
  DOE-2;                                  !- Algorithm

OS:HeatBalanceAlgorithm,
  {9d93e563-e1e0-46d7-9e39-d1c8aceb7212}, !- Handle
  ConductionTransferFunction,             !- Algorithm
  200;                                    !- Surface Temperature Upper Limit {F}

OS:ZoneAirHeatBalanceAlgorithm,
  {8520d93e-310f-4696-9bcd-36228bfdd743}, !- Handle
  AnalyticalSolution;                     !- Algorithm

OS:ZoneAirContaminantBalance,
  {eb5fc3ae-fb22-4160-8fcb-3e3b22b000d3}; !- Handle

OS:ZoneCapacitanceMultiplier:ResearchSpecial,
  {4020ce4f-5a7a-4849-8028-8305d7b751b1}, !- Handle
  ,                                       !- Temperature Capacity Multiplier
  ,                                       !- Humidity Capacity Multiplier
  ;                                       !- Carbon Dioxide Capacity Multiplier

OS:RunPeriod,
  {28df894d-6af9-4fb8-8f56-df1753344aa3}, !- Handle
  Run Period 1,                           !- Name
  1,                                      !- Begin Month
  1,                                      !- Begin Day of Month
  12,                                     !- End Month
  31,                                     !- End Day of Month
  ,                                       !- Use Weather File Holidays and Special Days
  ,                                       !- Use Weather File Daylight Saving Period
  ,                                       !- Apply Weekend Holiday Rule
  ,                                       !- Use Weather File Rain Indicators
  ,                                       !- Use Weather File Snow Indicators
  ;                                       !- Number of Times Runperiod to be Repeated

OS:Building,
  {bf305633-c5a1-4881-9edf-ca5e1a8e1274}, !- Handle
  Building 1,                             !- Name
  ,                                       !- Building Sector Type
  ,                                       !- North Axis {deg}
  ,                                       !- Nominal Floor to Floor Height {m}
  ,                                       !- Space Type Name
  ,                                       !- Default Construction Set Name
  {ee13d601-f765-4246-93d8-59062f4e2a1c}, !- Default Schedule Set Name
  ,                                       !- Standards Number of Stories
  ,                                       !- Standards Number of Above Ground Stories
  Retail;                                 !- Standards Building Type

OS:LifeCycleCost:Parameters,
  {231cf8a0-f0e7-4251-a99f-11f0d464e661}, !- Handle
  FEMP,                                   !- Analysis Type
  ,                                       !- Discounting Convention
  ,                                       !- Inflation Approach
  ,                                       !- Real Discount Rate
  ,                                       !- Nominal Discount Rate
  ,                                       !- Inflation
  ,                                       !- Base Date Month
  ,                                       !- Base Date Year
  ,                                       !- Service Date Month
  ,                                       !- Service Date Year
  ,                                       !- Length of Study Period in Years
  ,                                       !- Tax Rate
  ,                                       !- Depreciation Method
  Yes;                                    !- Use NIST Fuel Escalation Rates

OS:Facility,
  {3ba8e45b-b833-44eb-a723-ea6c3946dc96}; !- Handle

OS:SpaceType,
  {6dff0e70-8df6-4128-bfac-fdea438bb1ab}, !- Handle
  Retail|Retail|DOE Ref 2004|ASHRAE 169-2006-5A, !- Name
  {ed46010a-4089-4564-ae78-396ef6be72ee}, !- Default Construction Set Name
  {62ef87e5-49b8-463d-b4f8-fc63ded7e156}, !- Default Schedule Set Name
  {85df380c-6ad9-43d0-bc7a-75c0361ff282}, !- Group Rendering Name
  {aa009bea-51cd-466e-aaad-9164f7e8d64b}, !- Design Specification Outdoor Air Object Name
  Retail,                                 !- Standards Building Type
  Retail;                                 !- Standards Space Type

OS:Rendering:Color,
  {85df380c-6ad9-43d0-bc7a-75c0361ff282}, !- Handle
  Rendering Color 1,                      !- Name
  171,                                    !- Rendering Red Value
  222,                                    !- Rendering Green Value
  78;                                     !- Rendering Blue Value

OS:SpaceType,
  {84d2c0a1-d3ff-40fd-8f54-5887b11105fc}, !- Handle
  Retail|Back_Space|DOE Ref 2004|ASHRAE 169-2006-5A, !- Name
  {ed46010a-4089-4564-ae78-396ef6be72ee}, !- Default Construction Set Name
  {3de8e4fa-61d3-477a-99b0-8395cb292b53}, !- Default Schedule Set Name
  {97c361f8-6889-4276-ad44-4a5305e1cb1f}, !- Group Rendering Name
  {1721f3b6-5bcf-43f3-a52f-d8948ba3854f}, !- Design Specification Outdoor Air Object Name
  Retail,                                 !- Standards Building Type
  Back_Space;                             !- Standards Space Type

OS:Rendering:Color,
  {97c361f8-6889-4276-ad44-4a5305e1cb1f}, !- Handle
  Rendering Color 2,                      !- Name
  120,                                    !- Rendering Red Value
  149,                                    !- Rendering Green Value
  230;                                    !- Rendering Blue Value

OS:SpaceType,
  {814fdd85-08ed-4cd9-a622-84d649cfa2a5}, !- Handle
  Retail|BlendFront|DOE Ref 2004|ASHRAE 169-2006-5A, !- Name
  {ed46010a-4089-4564-ae78-396ef6be72ee}, !- Default Construction Set Name
  ,                                       !- Default Schedule Set Name
  {0b67e002-43a4-49d5-a2de-80de8629febe}, !- Group Rendering Name
  {e10c64ef-4767-4341-bae1-ba06cdbca5ea}, !- Design Specification Outdoor Air Object Name
  Retail,                                 !- Standards Building Type
  BlendFront;                             !- Standards Space Type

OS:Rendering:Color,
  {0b67e002-43a4-49d5-a2de-80de8629febe}, !- Handle
  Rendering Color 3,                      !- Name
  171,                                    !- Rendering Red Value
  222,                                    !- Rendering Green Value
  78;                                     !- Rendering Blue Value

OS:Schedule:Ruleset,
  {2c131819-9028-4efc-a257-b0420400bea3}, !- Handle
  0700|2100|Retail|default|hoo,           !- Name
  {00703cd7-a333-4003-a561-0a96bcfdf9df}, !- Schedule Type Limits Name
  {35857357-bf92-440d-8b38-78bd26e2ddc2}, !- Default Day Schedule Name
  {6d410597-15b3-4cdc-88ee-ba09900566f4}, !- Summer Design Day Schedule Name
  {c3fd1fc0-8d4b-4c2b-8a32-024c3a4418a0}; !- Winter Design Day Schedule Name

OS:Schedule:Day,
  {35857357-bf92-440d-8b38-78bd26e2ddc2}, !- Handle
  0700|2100|Retail|default|hoo Schedule Week Day, !- Name
  {00703cd7-a333-4003-a561-0a96bcfdf9df}, !- Schedule Type Limits Name
  ,                                       !- Interpolate to Timestep
  7,                                      !- Hour 1
  0,                                      !- Minute 1
  0,                                      !- Value Until Time 1
  21,                                     !- Hour 2
  0,                                      !- Minute 2
  1,                                      !- Value Until Time 2
  24,                                     !- Hour 3
  0,                                      !- Minute 3
  0;                                      !- Value Until Time 3

OS:Schedule:Day,
  {5d4851ee-3163-484c-bde8-3c70b376cba6}, !- Handle
  Schedule Day 2,                         !- Name
  ,                                       !- Schedule Type Limits Name
  ,                                       !- Interpolate to Timestep
  24,                                     !- Hour 1
  0,                                      !- Minute 1
  0;                                      !- Value Until Time 1

OS:Schedule:Day,
  {c3fd1fc0-8d4b-4c2b-8a32-024c3a4418a0}, !- Handle
  0700|2100|Retail|default|hoo Winter Design Day, !- Name
  {00703cd7-a333-4003-a561-0a96bcfdf9df}, !- Schedule Type Limits Name
  ,                                       !- Interpolate to Timestep
  24,                                     !- Hour 1
  0,                                      !- Minute 1
  0;                                      !- Value Until Time 1

OS:Schedule:Day,
  {0d6b42ff-31f4-4655-b9f2-59326c66a0fb}, !- Handle
  Schedule Day 3,                         !- Name
  ,                                       !- Schedule Type Limits Name
  ,                                       !- Interpolate to Timestep
  24,                                     !- Hour 1
  0,                                      !- Minute 1
  0;                                      !- Value Until Time 1

OS:Schedule:Day,
  {6d410597-15b3-4cdc-88ee-ba09900566f4}, !- Handle
  0700|2100|Retail|default|hoo Summer Design Day, !- Name
  {00703cd7-a333-4003-a561-0a96bcfdf9df}, !- Schedule Type Limits Name
  ,                                       !- Interpolate to Timestep
  24,                                     !- Hour 1
  0,                                      !- Minute 1
  1;                                      !- Value Until Time 1

OS:DefaultScheduleSet,
  {ee13d601-f765-4246-93d8-59062f4e2a1c}, !- Handle
  Building Hours of Operation,            !- Name
  {2c131819-9028-4efc-a257-b0420400bea3}, !- Hours of Operation Schedule Name
  ,                                       !- Number of People Schedule Name
  ,                                       !- People Activity Level Schedule Name
  ,                                       !- Lighting Schedule Name
  ,                                       !- Electric Equipment Schedule Name
  ,                                       !- Gas Equipment Schedule Name
  ,                                       !- Hot Water Equipment Schedule Name
  ,                                       !- Infiltration Schedule Name
  ,                                       !- Steam Equipment Schedule Name
  ;                                       !- Other Equipment Schedule Name

OS:ScheduleTypeLimits,
  {00703cd7-a333-4003-a561-0a96bcfdf9df}, !- Handle
  OnOff,                                  !- Name
  0,                                      !- Lower Limit Value {BasedOnField A4}
  1,                                      !- Upper Limit Value {BasedOnField A4}
  Discrete,                               !- Numeric Type
  Availability;                           !- Unit Type

OS:Schedule:Ruleset,
  {c81e6781-2f7d-41fd-aceb-c66c05af46f3}, !- Handle
  0700|2100|Retail|default|clg_setpoint,  !- Name
  {b2c38b1a-150b-466a-8711-e1d0e41f0c5d}, !- Schedule Type Limits Name
  {18c835ff-79e7-4156-a7a6-4158528a75cd}, !- Default Day Schedule Name
  {66d9e9b8-b904-42b5-a2ec-d724bb285126}, !- Summer Design Day Schedule Name
  {fd3e462a-da51-4bf5-9d3f-1f350c21c1ef}; !- Winter Design Day Schedule Name

OS:ScheduleTypeLimits,
  {b2c38b1a-150b-466a-8711-e1d0e41f0c5d}, !- Handle
  Thermostat Cooling Setpoint Schedule Type Limits, !- Name
  0,                                      !- Lower Limit Value {BasedOnField A4}
  100,                                    !- Upper Limit Value {BasedOnField A4}
  Continuous,                             !- Numeric Type
  Temperature;                            !- Unit Type

OS:Schedule:Day,
  {18c835ff-79e7-4156-a7a6-4158528a75cd}, !- Handle
  0700|2100|Retail|default|clg_setpoint |default, !- Name
  {b2c38b1a-150b-466a-8711-e1d0e41f0c5d}, !- Schedule Type Limits Name
  ,                                       !- Interpolate to Timestep
  24,                                     !- Hour 1
  0,                                      !- Minute 1
  24.0000000000001;                       !- Value Until Time 1

OS:Schedule:Day,
  {66d9e9b8-b904-42b5-a2ec-d724bb285126}, !- Handle
  0700|2100|Retail|default|clg_setpoint Summer Design Day, !- Name
  {b2c38b1a-150b-466a-8711-e1d0e41f0c5d}, !- Schedule Type Limits Name
  ,                                       !- Interpolate to Timestep
  24,                                     !- Hour 1
  0,                                      !- Minute 1
  24.0000000000001;                       !- Value Until Time 1

OS:Schedule:Day,
  {fd3e462a-da51-4bf5-9d3f-1f350c21c1ef}, !- Handle
  0700|2100|Retail|default|clg_setpoint Winter Design Day, !- Name
  {b2c38b1a-150b-466a-8711-e1d0e41f0c5d}, !- Schedule Type Limits Name
  ,                                       !- Interpolate to Timestep
  24,                                     !- Hour 1
  0,                                      !- Minute 1
  24.0000000000001;                       !- Value Until Time 1

OS:Schedule:Rule,
  {2594fb6f-2424-4849-a339-7aa33218ffc8}, !- Handle
  0700|2100|Retail|default|clg_setpoint |1/1-12/31|Sat Rule, !- Name
  {c81e6781-2f7d-41fd-aceb-c66c05af46f3}, !- Schedule Ruleset Name
  0,                                      !- Rule Order
  {29adcb68-8f86-4365-aa3b-c972b02877f9}, !- Day Schedule Name
  ,                                       !- Apply Sunday
  ,                                       !- Apply Monday
  ,                                       !- Apply Tuesday
  ,                                       !- Apply Wednesday
  ,                                       !- Apply Thursday
  ,                                       !- Apply Friday
  Yes,                                    !- Apply Saturday
  ,                                       !- Apply Holiday
  DateRange,                              !- Date Specification Type
  1,                                      !- Start Month
  1,                                      !- Start Day
  12,                                     !- End Month
  31;                                     !- End Day

OS:Schedule:Day,
  {29adcb68-8f86-4365-aa3b-c972b02877f9}, !- Handle
  0700|2100|Retail|default|clg_setpoint |1/1-12/31|Sat, !- Name
  {b2c38b1a-150b-466a-8711-e1d0e41f0c5d}, !- Schedule Type Limits Name
  ,                                       !- Interpolate to Timestep
  24,                                     !- Hour 1
  0,                                      !- Minute 1
  24.0000000000001;                       !- Value Until Time 1

OS:Schedule:Rule,
  {7739e1d3-6e54-4880-b7a0-9036586e27d0}, !- Handle
  0700|2100|Retail|default|clg_setpoint |1/1-12/31|Sun Rule, !- Name
  {c81e6781-2f7d-41fd-aceb-c66c05af46f3}, !- Schedule Ruleset Name
  1,                                      !- Rule Order
  {f088c582-731c-4c43-a18e-a8ccb1ba611e}, !- Day Schedule Name
  Yes,                                    !- Apply Sunday
  ,                                       !- Apply Monday
  ,                                       !- Apply Tuesday
  ,                                       !- Apply Wednesday
  ,                                       !- Apply Thursday
  ,                                       !- Apply Friday
  ,                                       !- Apply Saturday
  ,                                       !- Apply Holiday
  DateRange,                              !- Date Specification Type
  1,                                      !- Start Month
  1,                                      !- Start Day
  12,                                     !- End Month
  31;                                     !- End Day

OS:Schedule:Day,
  {f088c582-731c-4c43-a18e-a8ccb1ba611e}, !- Handle
  0700|2100|Retail|default|clg_setpoint |1/1-12/31|Sun, !- Name
  {b2c38b1a-150b-466a-8711-e1d0e41f0c5d}, !- Schedule Type Limits Name
  ,                                       !- Interpolate to Timestep
  24,                                     !- Hour 1
  0,                                      !- Minute 1
  24.0000000000001;                       !- Value Until Time 1

OS:Schedule:Ruleset,
  {998b15c0-fdba-4615-a7ca-be97d7e6ce93}, !- Handle
  0700|2100|Retail|default|air_velocity,  !- Name
  {6f78a168-b632-4c80-b88f-ed4f63e619dd}, !- Schedule Type Limits Name
  {8babb401-c33d-4cc7-9ef4-05961bc1c87f}, !- Default Day Schedule Name
  {c483b5f1-eef2-405a-973c-14a5ee19b913}, !- Summer Design Day Schedule Name
  {0d810eac-c89f-416a-9f54-ea9cba6d8506}; !- Winter Design Day Schedule Name

OS:ScheduleTypeLimits,
  {6f78a168-b632-4c80-b88f-ed4f63e619dd}, !- Handle
  Dimensionless Schedule Type Limits,     !- Name
  ,                                       !- Lower Limit Value {BasedOnField A4}
  ,                                       !- Upper Limit Value {BasedOnField A4}
  Continuous,                             !- Numeric Type
  Dimensionless;                          !- Unit Type

OS:Schedule:Day,
  {8babb401-c33d-4cc7-9ef4-05961bc1c87f}, !- Handle
  0700|2100|Retail|default|air_velocity |default, !- Name
  {6f78a168-b632-4c80-b88f-ed4f63e619dd}, !- Schedule Type Limits Name
  ,                                       !- Interpolate to Timestep
  24,                                     !- Hour 1
  0,                                      !- Minute 1
  0.200152;                               !- Value Until Time 1

OS:Schedule:Day,
  {c483b5f1-eef2-405a-973c-14a5ee19b913}, !- Handle
  0700|2100|Retail|default|air_velocity Summer Design Day, !- Name
  {6f78a168-b632-4c80-b88f-ed4f63e619dd}, !- Schedule Type Limits Name
  ,                                       !- Interpolate to Timestep
  24,                                     !- Hour 1
  0,                                      !- Minute 1
  0.200152;                               !- Value Until Time 1

OS:Schedule:Day,
  {0d810eac-c89f-416a-9f54-ea9cba6d8506}, !- Handle
  0700|2100|Retail|default|air_velocity Winter Design Day, !- Name
  {6f78a168-b632-4c80-b88f-ed4f63e619dd}, !- Schedule Type Limits Name
  ,                                       !- Interpolate to Timestep
  24,                                     !- Hour 1
  0,                                      !- Minute 1
  0.200152;                               !- Value Until Time 1

OS:Schedule:Ruleset,
  {b6fa9d83-f843-414f-89b0-9daef34b5bec}, !- Handle
  0700|2100|Retail|default|clothing,      !- Name
  {6f78a168-b632-4c80-b88f-ed4f63e619dd}, !- Schedule Type Limits Name
  {92ba92b6-a2d3-45de-b3d4-39311516e3b0}, !- Default Day Schedule Name
  {3c2d4e55-aa7b-4206-945b-7f6645a9eab6}, !- Summer Design Day Schedule Name
  {fa3cf5d3-479c-460a-9a4c-f9afa0c0e4e9}; !- Winter Design Day Schedule Name

OS:Schedule:Day,
  {92ba92b6-a2d3-45de-b3d4-39311516e3b0}, !- Handle
  0700|2100|Retail|default|clothing |default, !- Name
  {6f78a168-b632-4c80-b88f-ed4f63e619dd}, !- Schedule Type Limits Name
  ,                                       !- Interpolate to Timestep
  24,                                     !- Hour 1
  0,                                      !- Minute 1
  1;                                      !- Value Until Time 1

OS:Schedule:Day,
  {3c2d4e55-aa7b-4206-945b-7f6645a9eab6}, !- Handle
  0700|2100|Retail|default|clothing Summer Design Day, !- Name
  {6f78a168-b632-4c80-b88f-ed4f63e619dd}, !- Schedule Type Limits Name
  ,                                       !- Interpolate to Timestep
  24,                                     !- Hour 1
  0,                                      !- Minute 1
  1;                                      !- Value Until Time 1

OS:Schedule:Day,
  {fa3cf5d3-479c-460a-9a4c-f9afa0c0e4e9}, !- Handle
  0700|2100|Retail|default|clothing Winter Design Day, !- Name
  {6f78a168-b632-4c80-b88f-ed4f63e619dd}, !- Schedule Type Limits Name
  ,                                       !- Interpolate to Timestep
  24,                                     !- Hour 1
  0,                                      !- Minute 1
  1;                                      !- Value Until Time 1

OS:Schedule:Rule,
  {47e470df-fc39-4040-97ec-9d66ebbd16e3}, !- Handle
  0700|2100|Retail|default|clothing |5/1-9/30|Mon/Tue/Wed/Thu/Fri/Sat/Sun Rule, !- Name
  {b6fa9d83-f843-414f-89b0-9daef34b5bec}, !- Schedule Ruleset Name
  0,                                      !- Rule Order
  {dbb9cca8-2379-48b3-8997-11638662270e}, !- Day Schedule Name
  Yes,                                    !- Apply Sunday
  Yes,                                    !- Apply Monday
  Yes,                                    !- Apply Tuesday
  Yes,                                    !- Apply Wednesday
  Yes,                                    !- Apply Thursday
  Yes,                                    !- Apply Friday
  Yes,                                    !- Apply Saturday
  ,                                       !- Apply Holiday
  DateRange,                              !- Date Specification Type
  5,                                      !- Start Month
  1,                                      !- Start Day
  9,                                      !- End Month
  30;                                     !- End Day

OS:Schedule:Day,
  {dbb9cca8-2379-48b3-8997-11638662270e}, !- Handle
  0700|2100|Retail|default|clothing |5/1-9/30|Mon/Tue/Wed/Thu/Fri/Sat/Sun, !- Name
  {6f78a168-b632-4c80-b88f-ed4f63e619dd}, !- Schedule Type Limits Name
  ,                                       !- Interpolate to Timestep
  24,                                     !- Hour 1
  0,                                      !- Minute 1
  0.5;                                    !- Value Until Time 1

OS:Schedule:Rule,
  {8305dee2-a697-47d6-8073-97a5eeaba03c}, !- Handle
  0700|2100|Retail|default|clothing |10/1-12/31|Mon/Tue/Wed/Thu/Fri/Sat/Sun Rule, !- Name
  {b6fa9d83-f843-414f-89b0-9daef34b5bec}, !- Schedule Ruleset Name
  1,                                      !- Rule Order
  {7160cad6-2a71-4510-a7b0-f20ac7e2dfc4}, !- Day Schedule Name
  Yes,                                    !- Apply Sunday
  Yes,                                    !- Apply Monday
  Yes,                                    !- Apply Tuesday
  Yes,                                    !- Apply Wednesday
  Yes,                                    !- Apply Thursday
  Yes,                                    !- Apply Friday
  Yes,                                    !- Apply Saturday
  ,                                       !- Apply Holiday
  DateRange,                              !- Date Specification Type
  10,                                     !- Start Month
  1,                                      !- Start Day
  12,                                     !- End Month
  31;                                     !- End Day

OS:Schedule:Day,
  {7160cad6-2a71-4510-a7b0-f20ac7e2dfc4}, !- Handle
  0700|2100|Retail|default|clothing |10/1-12/31|Mon/Tue/Wed/Thu/Fri/Sat/Sun, !- Name
  {6f78a168-b632-4c80-b88f-ed4f63e619dd}, !- Schedule Type Limits Name
  ,                                       !- Interpolate to Timestep
  24,                                     !- Hour 1
  0,                                      !- Minute 1
  1;                                      !- Value Until Time 1

OS:Schedule:Ruleset,
  {1ccf53cb-55f4-4341-b1c7-5a851aac74cc}, !- Handle
  0700|2100|Retail|default|htg_setpoint,  !- Name
  {511d7cf4-0c79-4898-83f3-4dde5f42609e}, !- Schedule Type Limits Name
  {e16682aa-7544-4559-893c-27bcf3962eae}, !- Default Day Schedule Name
  {9460a08a-5026-4697-a1bd-dbd00aab0b59}, !- Summer Design Day Schedule Name
  {516de058-aac1-4b6c-b797-33cc91463481}; !- Winter Design Day Schedule Name

OS:ScheduleTypeLimits,
  {511d7cf4-0c79-4898-83f3-4dde5f42609e}, !- Handle
  Thermostat Heating Setpoint Schedule Type Limits, !- Name
  0,                                      !- Lower Limit Value {BasedOnField A4}
  100,                                    !- Upper Limit Value {BasedOnField A4}
  Continuous,                             !- Numeric Type
  Temperature;                            !- Unit Type

OS:Schedule:Day,
  {e16682aa-7544-4559-893c-27bcf3962eae}, !- Handle
  0700|2100|Retail|default|htg_setpoint |default, !- Name
  {511d7cf4-0c79-4898-83f3-4dde5f42609e}, !- Schedule Type Limits Name
  ,                                       !- Interpolate to Timestep
  24,                                     !- Hour 1
  0,                                      !- Minute 1
  21.0000000000001;                       !- Value Until Time 1

OS:Schedule:Day,
  {9460a08a-5026-4697-a1bd-dbd00aab0b59}, !- Handle
  0700|2100|Retail|default|htg_setpoint Summer Design Day, !- Name
  {511d7cf4-0c79-4898-83f3-4dde5f42609e}, !- Schedule Type Limits Name
  ,                                       !- Interpolate to Timestep
  24,                                     !- Hour 1
  0,                                      !- Minute 1
  21.0000000000001;                       !- Value Until Time 1

OS:Schedule:Day,
  {516de058-aac1-4b6c-b797-33cc91463481}, !- Handle
  0700|2100|Retail|default|htg_setpoint Winter Design Day, !- Name
  {511d7cf4-0c79-4898-83f3-4dde5f42609e}, !- Schedule Type Limits Name
  ,                                       !- Interpolate to Timestep
  24,                                     !- Hour 1
  0,                                      !- Minute 1
  21.0000000000001;                       !- Value Until Time 1

OS:Schedule:Rule,
  {5ff2196c-7618-4e15-8348-d840a7c2ba0b}, !- Handle
  0700|2100|Retail|default|htg_setpoint |1/1-12/31|Sat Rule, !- Name
  {1ccf53cb-55f4-4341-b1c7-5a851aac74cc}, !- Schedule Ruleset Name
  0,                                      !- Rule Order
  {dfcc45d1-f4f5-4b94-bbe6-516455cf79b7}, !- Day Schedule Name
  ,                                       !- Apply Sunday
  ,                                       !- Apply Monday
  ,                                       !- Apply Tuesday
  ,                                       !- Apply Wednesday
  ,                                       !- Apply Thursday
  ,                                       !- Apply Friday
  Yes,                                    !- Apply Saturday
  ,                                       !- Apply Holiday
  DateRange,                              !- Date Specification Type
  1,                                      !- Start Month
  1,                                      !- Start Day
  12,                                     !- End Month
  31;                                     !- End Day

OS:Schedule:Day,
  {dfcc45d1-f4f5-4b94-bbe6-516455cf79b7}, !- Handle
  0700|2100|Retail|default|htg_setpoint |1/1-12/31|Sat, !- Name
  {511d7cf4-0c79-4898-83f3-4dde5f42609e}, !- Schedule Type Limits Name
  ,                                       !- Interpolate to Timestep