
OS:Version,
  {44410d46-2b49-48b2-a860-aa06c251ca71}, !- Handle
  1.5.5;                                  !- Version Identifier

OS:ClimateZones,
  {135edfab-17e7-40db-a436-27d385a8cd6d}, !- Handle
  ,                                       !- Active Institution
  ,                                       !- Active Year
  ASHRAE,                                 !- Climate Zone Institution Name 1
  ANSI/ASHRAE Standard 169,               !- Climate Zone Document Name 1
  2006,                                   !- Climate Zone Document Year 1
  ,                                       !- Climate Zone Value 1
  CEC,                                    !- Climate Zone Institution Name 2
  California Climate Zone Descriptions,   !- Climate Zone Document Name 2
  1995,                                   !- Climate Zone Document Year 2
  ;                                       !- Climate Zone Value 2

OS:YearDescription,
  {513d8dda-86cb-442a-b01c-1f7f0e0ac70e}; !- Handle

OS:RadianceParameters,
  {270a96f1-3c86-4b75-a667-cdf22790e2c8}, !- Handle
  1,                                      !- Accumulated Rays per Record
  0,                                      !- Direct Threshold
  1,                                      !- Direct Certainty
  1,                                      !- Direct Jitter
  1,                                      !- Direct Pretest
  6,                                      !- Ambient Bounces VMX
  2,                                      !- Ambient Bounces DMX
  4050,                                   !- Ambient Divisions VMX
  512,                                    !- Ambient Divisions DMX
  256,                                    !- Ambient Supersamples
  0.001,                                  !- Limit Weight VMX
  0.001,                                  !- Limit Weight DMX
  500,                                    !- Klems Sampling Density
  146;                                    !- Sky Discretization Resolution

OS:SimulationControl,
  {2c487a4c-bac9-4ac5-b669-1e49d9da7c2b}, !- Handle
  ,                                       !- Do Zone Sizing Calculation
  ,                                       !- Do System Sizing Calculation
  ,                                       !- Do Plant Sizing Calculation
  No,                                     !- Run Simulation for Sizing Periods
  ,                                       !- Run Simulation for Weather File Run Periods
  0.04,                                   !- Loads Convergence Tolerance Value
  ,                                       !- Temperature Convergence Tolerance Value {deltaC}
  ,                                       !- Solar Distribution
  ,                                       !- Maximum Number of Warmup Days
  2;                                      !- Minimum Number of Warmup Days

OS:Sizing:Parameters,
  {dde5af6f-7923-4600-a28a-7556673a0266}, !- Handle
  1.25,                                   !- Heating Sizing Factor
  1.15;                                   !- Cooling Sizing Factor

OS:ProgramControl,
  {05027a99-f2b3-4aeb-afc6-1425fbb4371d}; !- Handle

OS:Timestep,
  {4ebc9f1e-4707-402e-9844-67eb1ffbd522}, !- Handle
  2;                                      !- Number of Timesteps per Hour

OS:OutputControl:ReportingTolerances,
  {65797aa2-06a9-45fe-b69d-bc6e060399d3}; !- Handle

OS:ConvergenceLimits,
  {9fc11aba-8822-4f3d-970c-46391ba4040d}; !- Handle

OS:ShadowCalculation,
  {ca758bea-4416-4626-9bba-3d8795c79bd6}, !- Handle
  7,                                      !- Calculation Frequency
  15000;                                  !- Maximum Figures in Shadow Overlap Calculations

OS:SurfaceConvectionAlgorithm:Inside,
  {aaabfc36-718a-4ab0-b622-f186ebb45230}, !- Handle
  TARP;                                   !- Algorithm

OS:SurfaceConvectionAlgorithm:Outside,
  {9a0a9f6f-4bbd-4b12-a121-9492a1fcd7d6}, !- Handle
  DOE-2;                                  !- Algorithm

OS:HeatBalanceAlgorithm,
  {9d93e563-e1e0-46d7-9e39-d1c8aceb7212}, !- Handle
  ConductionTransferFunction,             !- Algorithm
  200;                                    !- Surface Temperature Upper Limit {F}

OS:ZoneAirHeatBalanceAlgorithm,
  {8520d93e-310f-4696-9bcd-36228bfdd743}, !- Handle
  AnalyticalSolution;                     !- Algorithm

OS:ZoneAirContaminantBalance,
  {eb5fc3ae-fb22-4160-8fcb-3e3b22b000d3}; !- Handle

OS:ZoneCapacitanceMultiplier:ResearchSpecial,
  {4020ce4f-5a7a-4849-8028-8305d7b751b1}, !- Handle
  ,                                       !- Temperature Capacity Multiplier
  ,                                       !- Humidity Capacity Multiplier
  ;                                       !- Carbon Dioxide Capacity Multiplier

OS:RunPeriod,
  {28df894d-6af9-4fb8-8f56-df1753344aa3}, !- Handle
  Run Period 1,                           !- Name
  1,                                      !- Begin Month
  1,                                      !- Begin Day of Month
  12,                                     !- End Month
  31,                                     !- End Day of Month
  ,                                       !- Use Weather File Holidays and Special Days
  ,                                       !- Use Weather File Daylight Saving Period
  ,                                       !- Apply Weekend Holiday Rule
  ,                                       !- Use Weather File Rain Indicators
  ,                                       !- Use Weather File Snow Indicators
  ;                                       !- Number of Times Runperiod to be Repeated

OS:Building,
  {bf305633-c5a1-4881-9edf-ca5e1a8e1274}, !- Handle
  Building 1,                             !- Name
  ,                                       !- Building Sector Type
  ,                                       !- North Axis {deg}
  ,                                       !- Nominal Floor to Floor Height {m}
  ,                                       !- Space Type Name
  ,                                       !- Default Construction Set Name
  {043d1047-6561-4abd-8545-7722461e747c}, !- Default Schedule Set Name
  ,                                       !- Standards Number of Stories
  ,                                       !- Standards Number of Above Ground Stories
  Retail;                                 !- Standards Building Type

OS:LifeCycleCost:Parameters,
  {231cf8a0-f0e7-4251-a99f-11f0d464e661}, !- Handle
  FEMP,                                   !- Analysis Type
  ,                                       !- Discounting Convention
  ,                                       !- Inflation Approach
  ,                                       !- Real Discount Rate
  ,                                       !- Nominal Discount Rate
  ,                                       !- Inflation
  ,                                       !- Base Date Month
  ,                                       !- Base Date Year
  ,                                       !- Service Date Month
  ,                                       !- Service Date Year
  ,                                       !- Length of Study Period in Years
  ,                                       !- Tax Rate
  ,                                       !- Depreciation Method
  Yes;                                    !- Use NIST Fuel Escalation Rates

OS:Facility,
  {3ba8e45b-b833-44eb-a723-ea6c3946dc96}; !- Handle

OS:SpaceType,
  {6117c1e0-fe9f-4035-9750-d1857edf040d}, !- Handle
  Retail|Retail|DOE Ref 1980-2004|ASHRAE 169-2006-5A, !- Name
  {2f362507-09bb-40b8-9a63-785b20b9972e}, !- Default Construction Set Name
  {5ed6e6a9-54d7-40cf-99e7-49b4f6917e2f}, !- Default Schedule Set Name
  {038bf0f5-d2bc-433e-802a-3ae65e543db1}, !- Group Rendering Name
  {cb8538dc-f3b9-4d04-a2d0-ba151cd23523}, !- Design Specification Outdoor Air Object Name
  Retail,                                 !- Standards Building Type
  Retail;                                 !- Standards Space Type

OS:Rendering:Color,
  {038bf0f5-d2bc-433e-802a-3ae65e543db1}, !- Handle
  Rendering Color 1,                      !- Name
  171,                                    !- Rendering Red Value
  222,                                    !- Rendering Green Value
  78;                                     !- Rendering Blue Value

OS:SpaceType,
  {0a3db761-4403-46ea-81ec-59eae390e81d}, !- Handle
  Retail|Back_Space|DOE Ref 1980-2004|ASHRAE 169-2006-5A, !- Name
  {2f362507-09bb-40b8-9a63-785b20b9972e}, !- Default Construction Set Name
  {9b2faf09-3f57-4d58-9909-86b465bd191a}, !- Default Schedule Set Name
  {914cdd55-3bbe-40c9-84bc-7f756c454311}, !- Group Rendering Name
  {dedf7c0d-9dc4-4ebb-89b6-cf2689d577d6}, !- Design Specification Outdoor Air Object Name
  Retail,                                 !- Standards Building Type
  Back_Space;                             !- Standards Space Type

OS:Rendering:Color,
  {914cdd55-3bbe-40c9-84bc-7f756c454311}, !- Handle
  Rendering Color 2,                      !- Name
  120,                                    !- Rendering Red Value
  149,                                    !- Rendering Green Value
  230;                                    !- Rendering Blue Value

OS:SpaceType,
  {adffaa79-ccdb-4e89-a1fd-2cbbc98ae2d7}, !- Handle
  Retail|BlendFront|DOE Ref 1980-2004|ASHRAE 169-2006-5A, !- Name
  {2f362507-09bb-40b8-9a63-785b20b9972e}, !- Default Construction Set Name
  ,                                       !- Default Schedule Set Name
  {22b8f019-b730-47c0-86f4-7ef5325a33ff}, !- Group Rendering Name
  {f828c7d7-e800-4110-bc4a-3bbeb97c336d}, !- Design Specification Outdoor Air Object Name
  Retail,                                 !- Standards Building Type
  BlendFront;                             !- Standards Space Type

OS:Rendering:Color,
  {22b8f019-b730-47c0-86f4-7ef5325a33ff}, !- Handle
  Rendering Color 3,                      !- Name
  171,                                    !- Rendering Red Value
  222,                                    !- Rendering Green Value
  78;                                     !- Rendering Blue Value

OS:Schedule:Ruleset,
  {667c3048-44bf-4789-90d9-04cdef9628fe}, !- Handle
  0700|2100|Retail|default|hoo,           !- Name
  {11470fbc-fe72-4e81-8c54-acab472b5800}, !- Schedule Type Limits Name
  {a23702a3-495f-4b0d-899c-05a6f9e425da}, !- Default Day Schedule Name
  {7b237fd3-2304-4ae5-98e0-6c0e016203a4}, !- Summer Design Day Schedule Name
  {fd6b0a3d-e9de-46cd-88d0-17dfebe7bef9}; !- Winter Design Day Schedule Name

OS:Schedule:Day,
  {a23702a3-495f-4b0d-899c-05a6f9e425da}, !- Handle
  0700|2100|Retail|default|hoo Schedule Week Day, !- Name
  {11470fbc-fe72-4e81-8c54-acab472b5800}, !- Schedule Type Limits Name
  ,                                       !- Interpolate to Timestep
  7,                                      !- Hour 1
  0,                                      !- Minute 1
  0,                                      !- Value Until Time 1
  21,                                     !- Hour 2
  0,                                      !- Minute 2
  1,                                      !- Value Until Time 2
  24,                                     !- Hour 3
  0,                                      !- Minute 3
  0;                                      !- Value Until Time 3

OS:Schedule:Day,
  {d67abd85-1edd-45ce-9681-50d728537c0c}, !- Handle
  Schedule Day 2,                         !- Name
  ,                                       !- Schedule Type Limits Name
  ,                                       !- Interpolate to Timestep
  24,                                     !- Hour 1
  0,                                      !- Minute 1
  0;                                      !- Value Until Time 1

OS:Schedule:Day,
  {fd6b0a3d-e9de-46cd-88d0-17dfebe7bef9}, !- Handle
  0700|2100|Retail|default|hoo Winter Design Day, !- Name
  {11470fbc-fe72-4e81-8c54-acab472b5800}, !- Schedule Type Limits Name
  ,                                       !- Interpolate to Timestep
  24,                                     !- Hour 1
  0,                                      !- Minute 1
  0;                                      !- Value Until Time 1

OS:Schedule:Day,
  {1ca334ca-6b78-41d9-8039-71a4b1fea51b}, !- Handle
  Schedule Day 3,                         !- Name
  ,                                       !- Schedule Type Limits Name
  ,                                       !- Interpolate to Timestep
  24,                                     !- Hour 1
  0,                                      !- Minute 1
  0;                                      !- Value Until Time 1

OS:Schedule:Day,
  {7b237fd3-2304-4ae5-98e0-6c0e016203a4}, !- Handle
  0700|2100|Retail|default|hoo Summer Design Day, !- Name
  {11470fbc-fe72-4e81-8c54-acab472b5800}, !- Schedule Type Limits Name
  ,                                       !- Interpolate to Timestep
  24,                                     !- Hour 1
  0,                                      !- Minute 1
  1;                                      !- Value Until Time 1

OS:DefaultScheduleSet,
  {043d1047-6561-4abd-8545-7722461e747c}, !- Handle
  Building Hours of Operation,            !- Name
  {667c3048-44bf-4789-90d9-04cdef9628fe}, !- Hours of Operation Schedule Name
  ,                                       !- Number of People Schedule Name
  ,                                       !- People Activity Level Schedule Name
  ,                                       !- Lighting Schedule Name
  ,                                       !- Electric Equipment Schedule Name
  ,                                       !- Gas Equipment Schedule Name
  ,                                       !- Hot Water Equipment Schedule Name
  ,                                       !- Infiltration Schedule Name
  ,                                       !- Steam Equipment Schedule Name
  ;                                       !- Other Equipment Schedule Name

OS:ScheduleTypeLimits,
  {11470fbc-fe72-4e81-8c54-acab472b5800}, !- Handle
  OnOff,                                  !- Name
  0,                                      !- Lower Limit Value {BasedOnField A4}
  1,                                      !- Upper Limit Value {BasedOnField A4}
  Discrete,                               !- Numeric Type
  Availability;                           !- Unit Type

OS:Schedule:Ruleset,
  {c257b3fc-9841-4d0f-9ebe-c50ec1a86e80}, !- Handle
  0700|2100|Retail|default|clg_setpoint,  !- Name
  {97eaa1a1-eef2-43cb-9ae8-8fc22a63188d}, !- Schedule Type Limits Name
  {92ceed97-b290-4b47-86ab-d41f4fef71d5}, !- Default Day Schedule Name
  {79ea7cb8-0d0d-431d-a123-86892e5edb7a}, !- Summer Design Day Schedule Name
  {8e6e346d-d996-4f94-b904-f99e08015e80}; !- Winter Design Day Schedule Name

OS:ScheduleTypeLimits,
  {97eaa1a1-eef2-43cb-9ae8-8fc22a63188d}, !- Handle
  Thermostat Cooling Setpoint Schedule Type Limits, !- Name
  0,                                      !- Lower Limit Value {BasedOnField A4}
  100,                                    !- Upper Limit Value {BasedOnField A4}
  Continuous,                             !- Numeric Type
  Temperature;                            !- Unit Type

OS:Schedule:Day,
  {92ceed97-b290-4b47-86ab-d41f4fef71d5}, !- Handle
  0700|2100|Retail|default|clg_setpoint |default, !- Name
  {97eaa1a1-eef2-43cb-9ae8-8fc22a63188d}, !- Schedule Type Limits Name
  ,                                       !- Interpolate to Timestep
  24,                                     !- Hour 1
  0,                                      !- Minute 1
  24.0000000000001;                       !- Value Until Time 1

OS:Schedule:Day,
  {79ea7cb8-0d0d-431d-a123-86892e5edb7a}, !- Handle
  0700|2100|Retail|default|clg_setpoint Summer Design Day, !- Name
  {97eaa1a1-eef2-43cb-9ae8-8fc22a63188d}, !- Schedule Type Limits Name
  ,                                       !- Interpolate to Timestep
  24,                                     !- Hour 1
  0,                                      !- Minute 1
  24.0000000000001;                       !- Value Until Time 1

OS:Schedule:Day,
  {8e6e346d-d996-4f94-b904-f99e08015e80}, !- Handle
  0700|2100|Retail|default|clg_setpoint Winter Design Day, !- Name
  {97eaa1a1-eef2-43cb-9ae8-8fc22a63188d}, !- Schedule Type Limits Name
  ,                                       !- Interpolate to Timestep
  24,                                     !- Hour 1
  0,                                      !- Minute 1
  24.0000000000001;                       !- Value Until Time 1

OS:Schedule:Rule,
  {62349d69-9215-40bf-acca-01c68028c002}, !- Handle
  0700|2100|Retail|default|clg_setpoint |1/1-12/31|Sat Rule, !- Name
  {c257b3fc-9841-4d0f-9ebe-c50ec1a86e80}, !- Schedule Ruleset Name
  0,                                      !- Rule Order
  {a494d21c-af66-4bd0-8ac4-cd8edc4a37ac}, !- Day Schedule Name
  ,                                       !- Apply Sunday
  ,                                       !- Apply Monday
  ,                                       !- Apply Tuesday
  ,                                       !- Apply Wednesday
  ,                                       !- Apply Thursday
  ,                                       !- Apply Friday
  Yes,                                    !- Apply Saturday
  ,                                       !- Apply Holiday
  DateRange,                              !- Date Specification Type
  1,                                      !- Start Month
  1,                                      !- Start Day
  12,                                     !- End Month
  31;                                     !- End Day

OS:Schedule:Day,
  {a494d21c-af66-4bd0-8ac4-cd8edc4a37ac}, !- Handle
  0700|2100|Retail|default|clg_setpoint |1/1-12/31|Sat, !- Name
  {97eaa1a1-eef2-43cb-9ae8-8fc22a63188d}, !- Schedule Type Limits Name
  ,                                       !- Interpolate to Timestep
  24,                                     !- Hour 1
  0,                                      !- Minute 1
  24.0000000000001;                       !- Value Until Time 1

OS:Schedule:Rule,
  {dbdb9dcb-d1d1-4c40-9a45-2866990bab23}, !- Handle
  0700|2100|Retail|default|clg_setpoint |1/1-12/31|Sun Rule, !- Name
  {c257b3fc-9841-4d0f-9ebe-c50ec1a86e80}, !- Schedule Ruleset Name
  1,                                      !- Rule Order
  {506704ef-de54-4353-8e7b-88c47fe31d8e}, !- Day Schedule Name
  Yes,                                    !- Apply Sunday
  ,                                       !- Apply Monday
  ,                                       !- Apply Tuesday
  ,                                       !- Apply Wednesday
  ,                                       !- Apply Thursday
  ,                                       !- Apply Friday
  ,                                       !- Apply Saturday
  ,                                       !- Apply Holiday
  DateRange,                              !- Date Specification Type
  1,                                      !- Start Month
  1,                                      !- Start Day
  12,                                     !- End Month
  31;                                     !- End Day

OS:Schedule:Day,
  {506704ef-de54-4353-8e7b-88c47fe31d8e}, !- Handle
  0700|2100|Retail|default|clg_setpoint |1/1-12/31|Sun, !- Name
  {97eaa1a1-eef2-43cb-9ae8-8fc22a63188d}, !- Schedule Type Limits Name
  ,                                       !- Interpolate to Timestep
  24,                                     !- Hour 1
  0,                                      !- Minute 1
  24.0000000000001;                       !- Value Until Time 1

OS:Schedule:Ruleset,
  {8fefb6c5-9b0e-4b22-aa4d-4316e658890b}, !- Handle
  0700|2100|Retail|default|air_velocity,  !- Name
  {bbfd0bd5-ba1c-4c77-b26f-471604bd3efe}, !- Schedule Type Limits Name
  {69a066fe-d93a-4c19-a77e-3bd719870d5e}, !- Default Day Schedule Name
  {9c07c7ad-521c-456b-a316-ee54f1abbacb}, !- Summer Design Day Schedule Name
  {068c6362-9520-4460-9d8a-c52ec31d91a7}; !- Winter Design Day Schedule Name

OS:ScheduleTypeLimits,
  {bbfd0bd5-ba1c-4c77-b26f-471604bd3efe}, !- Handle
  Dimensionless Schedule Type Limits,     !- Name
  ,                                       !- Lower Limit Value {BasedOnField A4}
  ,                                       !- Upper Limit Value {BasedOnField A4}
  Continuous,                             !- Numeric Type
  Dimensionless;                          !- Unit Type

OS:Schedule:Day,
  {69a066fe-d93a-4c19-a77e-3bd719870d5e}, !- Handle
  0700|2100|Retail|default|air_velocity |default, !- Name
  {bbfd0bd5-ba1c-4c77-b26f-471604bd3efe}, !- Schedule Type Limits Name
  ,                                       !- Interpolate to Timestep
  24,                                     !- Hour 1
  0,                                      !- Minute 1
  0.200152;                               !- Value Until Time 1

OS:Schedule:Day,
  {9c07c7ad-521c-456b-a316-ee54f1abbacb}, !- Handle
  0700|2100|Retail|default|air_velocity Summer Design Day, !- Name
  {bbfd0bd5-ba1c-4c77-b26f-471604bd3efe}, !- Schedule Type Limits Name
  ,                                       !- Interpolate to Timestep
  24,                                     !- Hour 1
  0,                                      !- Minute 1
  0.200152;                               !- Value Until Time 1

OS:Schedule:Day,
  {068c6362-9520-4460-9d8a-c52ec31d91a7}, !- Handle
  0700|2100|Retail|default|air_velocity Winter Design Day, !- Name
  {bbfd0bd5-ba1c-4c77-b26f-471604bd3efe}, !- Schedule Type Limits Name
  ,                                       !- Interpolate to Timestep
  24,                                     !- Hour 1
  0,                                      !- Minute 1
  0.200152;                               !- Value Until Time 1

OS:Schedule:Ruleset,
  {211be72c-3a70-4698-9122-c7ebb22a1e78}, !- Handle
  0700|2100|Retail|default|clothing,      !- Name
  {bbfd0bd5-ba1c-4c77-b26f-471604bd3efe}, !- Schedule Type Limits Name
  {aa79faad-a0c1-45c8-8022-8955a302d7cd}, !- Default Day Schedule Name
  {21f94bcd-7e5e-45d4-90d6-088677972377}, !- Summer Design Day Schedule Name
  {cf1bed50-046d-4437-8d34-ec25b3e005c6}; !- Winter Design Day Schedule Name

OS:Schedule:Day,
  {aa79faad-a0c1-45c8-8022-8955a302d7cd}, !- Handle
  0700|2100|Retail|default|clothing |default, !- Name
  {bbfd0bd5-ba1c-4c77-b26f-471604bd3efe}, !- Schedule Type Limits Name
  ,                                       !- Interpolate to Timestep
  24,                                     !- Hour 1
  0,                                      !- Minute 1
  1;                                      !- Value Until Time 1

OS:Schedule:Day,
  {21f94bcd-7e5e-45d4-90d6-088677972377}, !- Handle
  0700|2100|Retail|default|clothing Summer Design Day, !- Name
  {bbfd0bd5-ba1c-4c77-b26f-471604bd3efe}, !- Schedule Type Limits Name
  ,                                       !- Interpolate to Timestep
  24,                                     !- Hour 1
  0,                                      !- Minute 1
  1;                                      !- Value Until Time 1

OS:Schedule:Day,
  {cf1bed50-046d-4437-8d34-ec25b3e005c6}, !- Handle
  0700|2100|Retail|default|clothing Winter Design Day, !- Name
  {bbfd0bd5-ba1c-4c77-b26f-471604bd3efe}, !- Schedule Type Limits Name
  ,                                       !- Interpolate to Timestep
  24,                                     !- Hour 1
  0,                                      !- Minute 1
  1;                                      !- Value Until Time 1

OS:Schedule:Rule,
  {80a883f7-d628-4ef2-8178-8627f270fa48}, !- Handle
  0700|2100|Retail|default|clothing |5/1-9/30|Mon/Tue/Wed/Thu/Fri/Sat/Sun Rule, !- Name
  {211be72c-3a70-4698-9122-c7ebb22a1e78}, !- Schedule Ruleset Name
  0,                                      !- Rule Order
  {5f10c2c5-bb50-46c2-8b11-8e0e62adf0f5}, !- Day Schedule Name
  Yes,                                    !- Apply Sunday
  Yes,                                    !- Apply Monday
  Yes,                                    !- Apply Tuesday
  Yes,                                    !- Apply Wednesday
  Yes,                                    !- Apply Thursday
  Yes,                                    !- Apply Friday
  Yes,                                    !- Apply Saturday
  ,                                       !- Apply Holiday
  DateRange,                              !- Date Specification Type
  5,                                      !- Start Month
  1,                                      !- Start Day
  9,                                      !- End Month
  30;                                     !- End Day

OS:Schedule:Day,
  {5f10c2c5-bb50-46c2-8b11-8e0e62adf0f5}, !- Handle
  0700|2100|Retail|default|clothing |5/1-9/30|Mon/Tue/Wed/Thu/Fri/Sat/Sun, !- Name
  {bbfd0bd5-ba1c-4c77-b26f-471604bd3efe}, !- Schedule Type Limits Name
  ,                                       !- Interpolate to Timestep
  24,                                     !- Hour 1
  0,                                      !- Minute 1
  0.5;                                    !- Value Until Time 1

OS:Schedule:Rule,
  {1a68d150-a182-42d1-b2a1-282b0327c8ad}, !- Handle
  0700|2100|Retail|default|clothing |10/1-12/31|Mon/Tue/Wed/Thu/Fri/Sat/Sun Rule, !- Name
  {211be72c-3a70-4698-9122-c7ebb22a1e78}, !- Schedule Ruleset Name
  1,                                      !- Rule Order
  {51bb0b20-023a-4c41-a405-bac20186ba48}, !- Day Schedule Name
  Yes,                                    !- Apply Sunday
  Yes,                                    !- Apply Monday
  Yes,                                    !- Apply Tuesday
  Yes,                                    !- Apply Wednesday
  Yes,                                    !- Apply Thursday
  Yes,                                    !- Apply Friday
  Yes,                                    !- Apply Saturday
  ,                                       !- Apply Holiday
  DateRange,                              !- Date Specification Type
  10,                                     !- Start Month
  1,                                      !- Start Day
  12,                                     !- End Month
  31;                                     !- End Day

OS:Schedule:Day,
  {51bb0b20-023a-4c41-a405-bac20186ba48}, !- Handle
  0700|2100|Retail|default|clothing |10/1-12/31|Mon/Tue/Wed/Thu/Fri/Sat/Sun, !- Name
  {bbfd0bd5-ba1c-4c77-b26f-471604bd3efe}, !- Schedule Type Limits Name
  ,                                       !- Interpolate to Timestep
  24,                                     !- Hour 1
  0,                                      !- Minute 1
  1;                                      !- Value Until Time 1

OS:Schedule:Ruleset,
  {d9e4180b-6dbf-4559-8d15-c1ea247bf873}, !- Handle
  0700|2100|Retail|default|htg_setpoint,  !- Name
  {c2318c46-b81a-463f-a14d-a0c4b4a7cb24}, !- Schedule Type Limits Name
  {49154abb-b6fd-4cc3-bd90-d90f3f49db61}, !- Default Day Schedule Name
  {f5215aef-7b0c-470c-a38e-b5ae0a0e2afc}, !- Summer Design Day Schedule Name
  {7bb01ef7-81e8-4652-8b2f-56425ea7b733}; !- Winter Design Day Schedule Name

OS:ScheduleTypeLimits,
  {c2318c46-b81a-463f-a14d-a0c4b4a7cb24}, !- Handle
  Thermostat Heating Setpoint Schedule Type Limits, !- Name
  0,                                      !- Lower Limit Value {BasedOnField A4}
  100,                                    !- Upper Limit Value {BasedOnField A4}
  Continuous,                             !- Numeric Type
  Temperature;                            !- Unit Type

OS:Schedule:Day,
  {49154abb-b6fd-4cc3-bd90-d90f3f49db61}, !- Handle
  0700|2100|Retail|default|htg_setpoint |default, !- Name
  {c2318c46-b81a-463f-a14d-a0c4b4a7cb24}, !- Schedule Type Limits Name
  ,                                       !- Interpolate to Timestep
  24,                                     !- Hour 1
  0,                                      !- Minute 1
  21.0000000000001;                       !- Value Until Time 1

OS:Schedule:Day,
  {f5215aef-7b0c-470c-a38e-b5ae0a0e2afc}, !- Handle
  0700|2100|Retail|default|htg_setpoint Summer Design Day, !- Name
  {c2318c46-b81a-463f-a14d-a0c4b4a7cb24}, !- Schedule Type Limits Name
  ,                                       !- Interpolate to Timestep
  24,                                     !- Hour 1
  0,                                      !- Minute 1
  21.0000000000001;                       !- Value Until Time 1

OS:Schedule:Day,
  {7bb01ef7-81e8-4652-8b2f-56425ea7b733}, !- Handle
  0700|2100|Retail|default|htg_setpoint Winter Design Day, !- Name
  {c2318c46-b81a-463f-a14d-a0c4b4a7cb24}, !- Schedule Type Limits Name
  ,                                       !- Interpolate to Timestep
  24,                                     !- Hour 1
  0,                                      !- Minute 1
  21.0000000000001;                       !- Value Until Time 1

OS:Schedule:Rule,
  {0adb751a-b47c-4571-895e-3ec82e2d6562}, !- Handle
  0700|2100|Retail|default|htg_setpoint |1/1-12/31|Sat Rule, !- Name
  {d9e4180b-6dbf-4559-8d15-c1ea247bf873}, !- Schedule Ruleset Name
  0,                                      !- Rule Order
  {493757a8-af31-4439-b3e7-c7c844a58849}, !- Day Schedule Name
  ,                                       !- Apply Sunday
  ,                                       !- Apply Monday
  ,                                       !- Apply Tuesday
  ,                                       !- Apply Wednesday
  ,                                       !- Apply Thursday
  ,                                       !- Apply Friday
  Yes,                                    !- Apply Saturday
  ,                                       !- Apply Holiday
  DateRange,                              !- Date Specification Type
  1,                                      !- Start Month
  1,                                      !- Start Day
  12,                                     !- End Month
  31;                                     !- End Day

OS:Schedule:Day,
  {493757a8-af31-4439-b3e7-c7c844a58849}, !- Handle
  0700|2100|Retail|default|htg_setpoint |1/1-12/31|Sat, !- Name
  {c2318c46-b81a-463f-a14d-a0c4b4a7cb24}, !- Schedule Type Limits Name