
OS:Version,
  {8cccae87-d95b-436d-aeda-570df1194756}, !- Handle
  1.6.0;                                  !- Version Identifier

OS:ClimateZones,
  {135edfab-17e7-40db-a436-27d385a8cd6d}, !- Handle
  ,                                       !- Active Institution
  ,                                       !- Active Year
  ASHRAE,                                 !- Climate Zone Institution Name 1
  ANSI/ASHRAE Standard 169,               !- Climate Zone Document Name 1
  2006,                                   !- Climate Zone Document Year 1
  ,                                       !- Climate Zone Value 1
  CEC,                                    !- Climate Zone Institution Name 2
  California Climate Zone Descriptions,   !- Climate Zone Document Name 2
  1995,                                   !- Climate Zone Document Year 2
  ;                                       !- Climate Zone Value 2

OS:YearDescription,
  {513d8dda-86cb-442a-b01c-1f7f0e0ac70e}; !- Handle

OS:RadianceParameters,
  {270a96f1-3c86-4b75-a667-cdf22790e2c8}, !- Handle
  1,                                      !- Accumulated Rays per Record
  0,                                      !- Direct Threshold
  1,                                      !- Direct Certainty
  1,                                      !- Direct Jitter
  1,                                      !- Direct Pretest
  6,                                      !- Ambient Bounces VMX
  2,                                      !- Ambient Bounces DMX
  4050,                                   !- Ambient Divisions VMX
  512,                                    !- Ambient Divisions DMX
  256,                                    !- Ambient Supersamples
  0.001,                                  !- Limit Weight VMX
  0.001,                                  !- Limit Weight DMX
  500,                                    !- Klems Sampling Density
  146;                                    !- Sky Discretization Resolution

OS:SimulationControl,
  {2c487a4c-bac9-4ac5-b669-1e49d9da7c2b}, !- Handle
  ,                                       !- Do Zone Sizing Calculation
  ,                                       !- Do System Sizing Calculation
  ,                                       !- Do Plant Sizing Calculation
  No,                                     !- Run Simulation for Sizing Periods
  ,                                       !- Run Simulation for Weather File Run Periods
  0.04,                                   !- Loads Convergence Tolerance Value
  ,                                       !- Temperature Convergence Tolerance Value {deltaC}
  ,                                       !- Solar Distribution
  ,                                       !- Maximum Number of Warmup Days
  2;                                      !- Minimum Number of Warmup Days

OS:Sizing:Parameters,
  {dde5af6f-7923-4600-a28a-7556673a0266}, !- Handle
  1.25,                                   !- Heating Sizing Factor
  1.15;                                   !- Cooling Sizing Factor

OS:ProgramControl,
  {05027a99-f2b3-4aeb-afc6-1425fbb4371d}; !- Handle

OS:Timestep,
  {4ebc9f1e-4707-402e-9844-67eb1ffbd522}, !- Handle
  2;                                      !- Number of Timesteps per Hour

OS:OutputControl:ReportingTolerances,
  {65797aa2-06a9-45fe-b69d-bc6e060399d3}; !- Handle

OS:ConvergenceLimits,
  {9fc11aba-8822-4f3d-970c-46391ba4040d}; !- Handle

OS:ShadowCalculation,
  {ca758bea-4416-4626-9bba-3d8795c79bd6}, !- Handle
  7,                                      !- Calculation Frequency
  15000;                                  !- Maximum Figures in Shadow Overlap Calculations

OS:SurfaceConvectionAlgorithm:Inside,
  {aaabfc36-718a-4ab0-b622-f186ebb45230}, !- Handle
  TARP;                                   !- Algorithm

OS:SurfaceConvectionAlgorithm:Outside,
  {9a0a9f6f-4bbd-4b12-a121-9492a1fcd7d6}, !- Handle
  DOE-2;                                  !- Algorithm

OS:HeatBalanceAlgorithm,
  {9d93e563-e1e0-46d7-9e39-d1c8aceb7212}, !- Handle
  ConductionTransferFunction,             !- Algorithm
  200;                                    !- Surface Temperature Upper Limit {F}

OS:ZoneAirHeatBalanceAlgorithm,
  {8520d93e-310f-4696-9bcd-36228bfdd743}, !- Handle
  AnalyticalSolution;                     !- Algorithm

OS:ZoneAirContaminantBalance,
  {eb5fc3ae-fb22-4160-8fcb-3e3b22b000d3}; !- Handle

OS:ZoneCapacitanceMultiplier:ResearchSpecial,
  {4020ce4f-5a7a-4849-8028-8305d7b751b1}, !- Handle
  ,                                       !- Temperature Capacity Multiplier
  ,                                       !- Humidity Capacity Multiplier
  ;                                       !- Carbon Dioxide Capacity Multiplier

OS:RunPeriod,
  {28df894d-6af9-4fb8-8f56-df1753344aa3}, !- Handle
  Run Period 1,                           !- Name
  1,                                      !- Begin Month
  1,                                      !- Begin Day of Month
  12,                                     !- End Month
  31,                                     !- End Day of Month
  ,                                       !- Use Weather File Holidays and Special Days
  ,                                       !- Use Weather File Daylight Saving Period
  ,                                       !- Apply Weekend Holiday Rule
  ,                                       !- Use Weather File Rain Indicators
  ,                                       !- Use Weather File Snow Indicators
  ;                                       !- Number of Times Runperiod to be Repeated

OS:Building,
  {bf305633-c5a1-4881-9edf-ca5e1a8e1274}, !- Handle
  Building 1,                             !- Name
  ,                                       !- Building Sector Type
  ,                                       !- North Axis {deg}
  ,                                       !- Nominal Floor to Floor Height {m}
  ,                                       !- Space Type Name
  ,                                       !- Default Construction Set Name
  {821cab72-fd8d-4a5c-8c74-d9f19093dba0}, !- Default Schedule Set Name
  ,                                       !- Standards Number of Stories
  ,                                       !- Standards Number of Above Ground Stories
  Retail;                                 !- Standards Building Type

OS:LifeCycleCost:Parameters,
  {231cf8a0-f0e7-4251-a99f-11f0d464e661}, !- Handle
  FEMP,                                   !- Analysis Type
  ,                                       !- Discounting Convention
  ,                                       !- Inflation Approach
  ,                                       !- Real Discount Rate
  ,                                       !- Nominal Discount Rate
  ,                                       !- Inflation
  ,                                       !- Base Date Month
  ,                                       !- Base Date Year
  ,                                       !- Service Date Month
  ,                                       !- Service Date Year
  ,                                       !- Length of Study Period in Years
  ,                                       !- Tax Rate
  ,                                       !- Depreciation Method
  Yes;                                    !- Use NIST Fuel Escalation Rates

OS:Facility,
  {3ba8e45b-b833-44eb-a723-ea6c3946dc96}; !- Handle

OS:SpaceType,
  {8bb6f7a2-55a1-4a55-923a-d3dd41ecbd2c}, !- Handle
  Retail|Retail|DOE Ref 2004|ASHRAE 169-2006-5A, !- Name
  {c3756fed-97bc-4827-a9ef-8c38dcee5423}, !- Default Construction Set Name
  {87a7f10a-d383-4da0-96c8-39e69ac80549}, !- Default Schedule Set Name
  {77b7e348-cf90-4050-b9c9-2c2e5cd4563b}, !- Group Rendering Name
  {3497f6e9-76f2-4289-b8de-8427df7e338b}, !- Design Specification Outdoor Air Object Name
  Retail,                                 !- Standards Building Type
  Retail;                                 !- Standards Space Type

OS:Rendering:Color,
  {77b7e348-cf90-4050-b9c9-2c2e5cd4563b}, !- Handle
  Rendering Color 1,                      !- Name
  171,                                    !- Rendering Red Value
  222,                                    !- Rendering Green Value
  78;                                     !- Rendering Blue Value

OS:SpaceType,
  {630b1bf9-dc6c-4ea5-b3aa-76d98225725d}, !- Handle
  Retail|BackSpace|DOE Ref 2004|ASHRAE 169-2006-5A, !- Name
  {c3756fed-97bc-4827-a9ef-8c38dcee5423}, !- Default Construction Set Name
  {25813a44-c169-4e94-bf58-fbe4ef0f6c0d}, !- Default Schedule Set Name
  {a9ec9855-a60b-4317-9410-464bfc755e24}, !- Group Rendering Name
  {6c6e953e-771c-415e-b3dc-9ed4b9691031}, !- Design Specification Outdoor Air Object Name
  Retail,                                 !- Standards Building Type
  BackSpace;                              !- Standards Space Type

OS:Rendering:Color,
  {a9ec9855-a60b-4317-9410-464bfc755e24}, !- Handle
  Rendering Color 2,                      !- Name
  120,                                    !- Rendering Red Value
  149,                                    !- Rendering Green Value
  230;                                    !- Rendering Blue Value

OS:SpaceType,
  {ef1fec51-83ef-497d-9678-162f40db256f}, !- Handle
  Retail|BlendFront|DOE Ref 2004|ASHRAE 169-2006-5A, !- Name
  {c3756fed-97bc-4827-a9ef-8c38dcee5423}, !- Default Construction Set Name
  ,                                       !- Default Schedule Set Name
  {0b900625-f5dd-48b8-a5d1-404d2e896032}, !- Group Rendering Name
  {59e8629b-f6fb-4e63-872a-3e50b7749ae2}, !- Design Specification Outdoor Air Object Name
  Retail,                                 !- Standards Building Type
  BlendFront;                             !- Standards Space Type

OS:Rendering:Color,
  {0b900625-f5dd-48b8-a5d1-404d2e896032}, !- Handle
  Rendering Color 3,                      !- Name
  171,                                    !- Rendering Red Value
  222,                                    !- Rendering Green Value
  78;                                     !- Rendering Blue Value

OS:Schedule:Ruleset,
  {d877a6b0-d6f9-4be5-a8d5-429960519e93}, !- Handle
  0700|2100|Retail|default|hoo,           !- Name
  {1a5b5c9d-cf86-43de-91eb-bab9cebf6059}, !- Schedule Type Limits Name
  {640358e2-dbc3-41bf-b1fd-c5dd3652cc65}, !- Default Day Schedule Name
  {34c47210-7c07-4bd8-bbd3-66ad174c2c38}, !- Summer Design Day Schedule Name
  {6237d3b5-243f-4892-ab8d-55649c68e8a3}; !- Winter Design Day Schedule Name

OS:Schedule:Day,
  {640358e2-dbc3-41bf-b1fd-c5dd3652cc65}, !- Handle
  0700|2100|Retail|default|hoo Schedule Week Day, !- Name
  {1a5b5c9d-cf86-43de-91eb-bab9cebf6059}, !- Schedule Type Limits Name
  ,                                       !- Interpolate to Timestep
  7,                                      !- Hour 1
  0,                                      !- Minute 1
  0,                                      !- Value Until Time 1
  21,                                     !- Hour 2
  0,                                      !- Minute 2
  1,                                      !- Value Until Time 2
  24,                                     !- Hour 3
  0,                                      !- Minute 3
  0;                                      !- Value Until Time 3

OS:Schedule:Day,
  {d6961366-6240-47a8-849c-0dbab48123ba}, !- Handle
  Schedule Day 2,                         !- Name
  ,                                       !- Schedule Type Limits Name
  ,                                       !- Interpolate to Timestep
  24,                                     !- Hour 1
  0,                                      !- Minute 1
  0;                                      !- Value Until Time 1

OS:Schedule:Day,
  {6237d3b5-243f-4892-ab8d-55649c68e8a3}, !- Handle
  0700|2100|Retail|default|hoo Winter Design Day, !- Name
  {1a5b5c9d-cf86-43de-91eb-bab9cebf6059}, !- Schedule Type Limits Name
  ,                                       !- Interpolate to Timestep
  24,                                     !- Hour 1
  0,                                      !- Minute 1
  0;                                      !- Value Until Time 1

OS:Schedule:Day,
  {624bd77d-41e3-4496-ab72-f8722067ee79}, !- Handle
  Schedule Day 3,                         !- Name
  ,                                       !- Schedule Type Limits Name
  ,                                       !- Interpolate to Timestep
  24,                                     !- Hour 1
  0,                                      !- Minute 1
  0;                                      !- Value Until Time 1

OS:Schedule:Day,
  {34c47210-7c07-4bd8-bbd3-66ad174c2c38}, !- Handle
  0700|2100|Retail|default|hoo Summer Design Day, !- Name
  {1a5b5c9d-cf86-43de-91eb-bab9cebf6059}, !- Schedule Type Limits Name
  ,                                       !- Interpolate to Timestep
  24,                                     !- Hour 1
  0,                                      !- Minute 1
  1;                                      !- Value Until Time 1

OS:DefaultScheduleSet,
  {821cab72-fd8d-4a5c-8c74-d9f19093dba0}, !- Handle
  Building Hours of Operation,            !- Name
  {d877a6b0-d6f9-4be5-a8d5-429960519e93}, !- Hours of Operation Schedule Name
  ,                                       !- Number of People Schedule Name
  ,                                       !- People Activity Level Schedule Name
  ,                                       !- Lighting Schedule Name
  ,                                       !- Electric Equipment Schedule Name
  ,                                       !- Gas Equipment Schedule Name
  ,                                       !- Hot Water Equipment Schedule Name
  ,                                       !- Infiltration Schedule Name
  ,                                       !- Steam Equipment Schedule Name
  ;                                       !- Other Equipment Schedule Name

OS:ScheduleTypeLimits,
  {1a5b5c9d-cf86-43de-91eb-bab9cebf6059}, !- Handle
  OnOff,                                  !- Name
  0,                                      !- Lower Limit Value {BasedOnField A4}
  1,                                      !- Upper Limit Value {BasedOnField A4}
  Discrete,                               !- Numeric Type
  Availability;                           !- Unit Type

OS:Schedule:Ruleset,
  {eb3778c6-b191-4366-bc4d-ad7cdbaf93cf}, !- Handle
  0700|2100|Retail|default|occ,           !- Name
  {149852ce-5caf-4438-9db3-c722000c152a}, !- Schedule Type Limits Name
  {b4066be3-5f30-4c7e-87f6-32c709c83375}, !- Default Day Schedule Name
  {6bc5dae1-a306-4f5c-85f1-ef22806f313d}, !- Summer Design Day Schedule Name
  {68e1b76a-4808-4cb7-8946-98f883af8d6f}; !- Winter Design Day Schedule Name

OS:ScheduleTypeLimits,
  {149852ce-5caf-4438-9db3-c722000c152a}, !- Handle
  Occupancy Schedule Type Limits,         !- Name
  0,                                      !- Lower Limit Value {BasedOnField A4}
  1,                                      !- Upper Limit Value {BasedOnField A4}
  Continuous,                             !- Numeric Type
  Dimensionless;                          !- Unit Type

OS:Schedule:Day,
  {b4066be3-5f30-4c7e-87f6-32c709c83375}, !- Handle
  0700|2100|Retail|default|occ |default,  !- Name
  {149852ce-5caf-4438-9db3-c722000c152a}, !- Schedule Type Limits Name
  ,                                       !- Interpolate to Timestep
  7,                                      !- Hour 1
  0,                                      !- Minute 1
  0,                                      !- Value Until Time 1
  8,                                      !- Hour 2
  0,                                      !- Minute 2
  0.1,                                    !- Value Until Time 2
  9,                                      !- Hour 3
  0,                                      !- Minute 3
  0.2,                                    !- Value Until Time 3
  11,                                     !- Hour 4
  0,                                      !- Minute 4
  0.5,                                    !- Value Until Time 4
  15,                                     !- Hour 5
  0,                                      !- Minute 5
  0.7,                                    !- Value Until Time 5
  16,                                     !- Hour 6
  0,                                      !- Minute 6
  0.8,                                    !- Value Until Time 6
  17,                                     !- Hour 7
  0,                                      !- Minute 7
  0.7,                                    !- Value Until Time 7
  19,                                     !- Hour 8
  0,                                      !- Minute 8
  0.5,                                    !- Value Until Time 8
  21,                                     !- Hour 9
  0,                                      !- Minute 9
  0.3,                                    !- Value Until Time 9
  24,                                     !- Hour 10
  0,                                      !- Minute 10
  0;                                      !- Value Until Time 10

OS:Schedule:Day,
  {6bc5dae1-a306-4f5c-85f1-ef22806f313d}, !- Handle
  0700|2100|Retail|default|occ Summer Design Day, !- Name
  {149852ce-5caf-4438-9db3-c722000c152a}, !- Schedule Type Limits Name
  ,                                       !- Interpolate to Timestep
  7,                                      !- Hour 1
  0,                                      !- Minute 1
  0,                                      !- Value Until Time 1
  8,                                      !- Hour 2
  0,                                      !- Minute 2
  0.1,                                    !- Value Until Time 2
  9,                                      !- Hour 3
  0,                                      !- Minute 3
  0.2,                                    !- Value Until Time 3
  21,                                     !- Hour 4
  0,                                      !- Minute 4
  1,                                      !- Value Until Time 4
  24,                                     !- Hour 5
  0,                                      !- Minute 5
  0;                                      !- Value Until Time 5

OS:Schedule:Day,
  {68e1b76a-4808-4cb7-8946-98f883af8d6f}, !- Handle
  0700|2100|Retail|default|occ Winter Design Day, !- Name
  {149852ce-5caf-4438-9db3-c722000c152a}, !- Schedule Type Limits Name
  ,                                       !- Interpolate to Timestep
  24,                                     !- Hour 1
  0,                                      !- Minute 1
  0;                                      !- Value Until Time 1

OS:Schedule:Rule,
  {86ae84b9-88bf-422e-b0e0-7ec62d0204f1}, !- Handle
  0700|2100|Retail|default|occ |1/1-12/31|Sat Rule, !- Name
  {eb3778c6-b191-4366-bc4d-ad7cdbaf93cf}, !- Schedule Ruleset Name
  0,                                      !- Rule Order
  {95359239-a68e-4abe-88c2-05ed9be57c7b}, !- Day Schedule Name
  ,                                       !- Apply Sunday
  ,                                       !- Apply Monday
  ,                                       !- Apply Tuesday
  ,                                       !- Apply Wednesday
  ,                                       !- Apply Thursday
  ,                                       !- Apply Friday
  Yes,                                    !- Apply Saturday
  ,                                       !- Apply Holiday
  DateRange,                              !- Date Specification Type
  1,                                      !- Start Month
  1,                                      !- Start Day
  12,                                     !- End Month
  31;                                     !- End Day

OS:Schedule:Day,
  {95359239-a68e-4abe-88c2-05ed9be57c7b}, !- Handle
  0700|2100|Retail|default|occ |1/1-12/31|Sat, !- Name
  {149852ce-5caf-4438-9db3-c722000c152a}, !- Schedule Type Limits Name
  ,                                       !- Interpolate to Timestep
  7,                                      !- Hour 1
  0,                                      !- Minute 1
  0,                                      !- Value Until Time 1
  8,                                      !- Hour 2
  0,                                      !- Minute 2
  0.1,                                    !- Value Until Time 2
  9,                                      !- Hour 3
  0,                                      !- Minute 3
  0.2,                                    !- Value Until Time 3
  10,                                     !- Hour 4
  0,                                      !- Minute 4
  0.5,                                    !- Value Until Time 4
  11,                                     !- Hour 5
  0,                                      !- Minute 5
  0.6,                                    !- Value Until Time 5
  17,                                     !- Hour 6
  0,                                      !- Minute 6
  0.8,                                    !- Value Until Time 6
  18,                                     !- Hour 7
  0,                                      !- Minute 7
  0.6,                                    !- Value Until Time 7
  21,                                     !- Hour 8
  0,                                      !- Minute 8
  0.2,                                    !- Value Until Time 8
  22,                                     !- Hour 9
  0,                                      !- Minute 9
  0.1,                                    !- Value Until Time 9
  24,                                     !- Hour 10
  0,                                      !- Minute 10
  0;                                      !- Value Until Time 10

OS:Schedule:Rule,
  {92fdda7e-373e-40d5-ad21-c08752520353}, !- Handle
  0700|2100|Retail|default|occ |1/1-12/31|Sun Rule, !- Name
  {eb3778c6-b191-4366-bc4d-ad7cdbaf93cf}, !- Schedule Ruleset Name
  1,                                      !- Rule Order
  {5f497908-c63f-4554-886d-3ad4fdf907db}, !- Day Schedule Name
  Yes,                                    !- Apply Sunday
  ,                                       !- Apply Monday
  ,                                       !- Apply Tuesday
  ,                                       !- Apply Wednesday
  ,                                       !- Apply Thursday
  ,                                       !- Apply Friday
  ,                                       !- Apply Saturday
  ,                                       !- Apply Holiday
  DateRange,                              !- Date Specification Type
  1,                                      !- Start Month
  1,                                      !- Start Day
  12,                                     !- End Month
  31;                                     !- End Day

OS:Schedule:Day,
  {5f497908-c63f-4554-886d-3ad4fdf907db}, !- Handle
  0700|2100|Retail|default|occ |1/1-12/31|Sun, !- Name
  {149852ce-5caf-4438-9db3-c722000c152a}, !- Schedule Type Limits Name
  ,                                       !- Interpolate to Timestep
  9,                                      !- Hour 1
  0,                                      !- Minute 1
  0,                                      !- Value Until Time 1
  10,                                     !- Hour 2
  0,                                      !- Minute 2
  0.1,                                    !- Value Until Time 2
  12,                                     !- Hour 3
  0,                                      !- Minute 3
  0.2,                                    !- Value Until Time 3
  17,                                     !- Hour 4
  0,                                      !- Minute 4
  0.4,                                    !- Value Until Time 4
  18,                                     !- Hour 5
  0,                                      !- Minute 5
  0.2,                                    !- Value Until Time 5
  19,                                     !- Hour 6
  0,                                      !- Minute 6
  0.1,                                    !- Value Until Time 6
  24,                                     !- Hour 7
  0,                                      !- Minute 7
  0;                                      !- Value Until Time 7

OS:Schedule:Ruleset,
  {21aac38f-58a8-43eb-9668-cef91032467b}, !- Handle
  0700|2100|Retail|default|clothing,      !- Name
  {987a5ac5-c852-4637-ab6b-a07cd4d74caf}, !- Schedule Type Limits Name
  {45638e1a-d6a3-4cb5-9c8c-d661d48a7cff}, !- Default Day Schedule Name
  {86caf927-e25c-48d1-b92c-0d79a69443da}, !- Summer Design Day Schedule Name
  {215b7295-9ff4-48ba-ae97-14a7d4f86783}; !- Winter Design Day Schedule Name

OS:ScheduleTypeLimits,
  {987a5ac5-c852-4637-ab6b-a07cd4d74caf}, !- Handle
  Dimensionless Schedule Type Limits,     !- Name
  ,                                       !- Lower Limit Value {BasedOnField A4}
  ,                                       !- Upper Limit Value {BasedOnField A4}
  Continuous,                             !- Numeric Type
  Dimensionless;                          !- Unit Type

OS:Schedule:Day,
  {45638e1a-d6a3-4cb5-9c8c-d661d48a7cff}, !- Handle
  0700|2100|Retail|default|clothing |default, !- Name
  {987a5ac5-c852-4637-ab6b-a07cd4d74caf}, !- Schedule Type Limits Name
  ,                                       !- Interpolate to Timestep
  24,                                     !- Hour 1
  0,                                      !- Minute 1
  1;                                      !- Value Until Time 1

OS:Schedule:Day,
  {86caf927-e25c-48d1-b92c-0d79a69443da}, !- Handle
  0700|2100|Retail|default|clothing Summer Design Day, !- Name
  {987a5ac5-c852-4637-ab6b-a07cd4d74caf}, !- Schedule Type Limits Name
  ,                                       !- Interpolate to Timestep
  24,                                     !- Hour 1
  0,                                      !- Minute 1
  1;                                      !- Value Until Time 1

OS:Schedule:Day,
  {215b7295-9ff4-48ba-ae97-14a7d4f86783}, !- Handle
  0700|2100|Retail|default|clothing Winter Design Day, !- Name
  {987a5ac5-c852-4637-ab6b-a07cd4d74caf}, !- Schedule Type Limits Name
  ,                                       !- Interpolate to Timestep
  24,                                     !- Hour 1
  0,                                      !- Minute 1
  1;                                      !- Value Until Time 1

OS:Schedule:Rule,
  {86047eb8-6fba-4652-8134-b6210223f80c}, !- Handle
  0700|2100|Retail|default|clothing |5/1-9/30|Mon/Tue/Wed/Thu/Fri/Sat/Sun Rule, !- Name
  {21aac38f-58a8-43eb-9668-cef91032467b}, !- Schedule Ruleset Name
  0,                                      !- Rule Order
  {e9a1f28c-6b88-40d4-b156-4ea8ea0da8f5}, !- Day Schedule Name
  Yes,                                    !- Apply Sunday
  Yes,                                    !- Apply Monday
  Yes,                                    !- Apply Tuesday
  Yes,                                    !- Apply Wednesday
  Yes,                                    !- Apply Thursday
  Yes,                                    !- Apply Friday
  Yes,                                    !- Apply Saturday
  ,                                       !- Apply Holiday
  DateRange,                              !- Date Specification Type
  5,                                      !- Start Month
  1,                                      !- Start Day
  9,                                      !- End Month
  30;                                     !- End Day

OS:Schedule:Day,
  {e9a1f28c-6b88-40d4-b156-4ea8ea0da8f5}, !- Handle
  0700|2100|Retail|default|clothing |5/1-9/30|Mon/Tue/Wed/Thu/Fri/Sat/Sun, !- Name
  {987a5ac5-c852-4637-ab6b-a07cd4d74caf}, !- Schedule Type Limits Name
  ,                                       !- Interpolate to Timestep
  24,                                     !- Hour 1
  0,                                      !- Minute 1
  0.5;                                    !- Value Until Time 1

OS:Schedule:Rule,
  {3d07d94e-1a03-44f2-b428-d2c37a715f5e}, !- Handle
  0700|2100|Retail|default|clothing |10/1-12/31|Mon/Tue/Wed/Thu/Fri/Sat/Sun Rule, !- Name
  {21aac38f-58a8-43eb-9668-cef91032467b}, !- Schedule Ruleset Name
  1,                                      !- Rule Order
  {7ed04381-bb82-4125-81d4-b97f7e77a166}, !- Day Schedule Name
  Yes,                                    !- Apply Sunday
  Yes,                                    !- Apply Monday
  Yes,                                    !- Apply Tuesday
  Yes,                                    !- Apply Wednesday
  Yes,                                    !- Apply Thursday
  Yes,                                    !- Apply Friday
  Yes,                                    !- Apply Saturday
  ,                                       !- Apply Holiday
  DateRange,                              !- Date Specification Type
  10,                                     !- Start Month
  1,                                      !- Start Day
  12,                                     !- End Month
  31;                                     !- End Day

OS:Schedule:Day,
  {7ed04381-bb82-4125-81d4-b97f7e77a166}, !- Handle
  0700|2100|Retail|default|clothing |10/1-12/31|Mon/Tue/Wed/Thu/Fri/Sat/Sun, !- Name
  {987a5ac5-c852-4637-ab6b-a07cd4d74caf}, !- Schedule Type Limits Name
  ,                                       !- Interpolate to Timestep
  24,                                     !- Hour 1
  0,                                      !- Minute 1
  1;                                      !- Value Until Time 1

OS:Schedule:Ruleset,
  {f826d9b4-690a-47f4-8aaa-380660846bfa}, !- Handle
  0700|2100|Retail|default|ext_lighting,  !- Name
  {325112c5-352f-4603-aea3-e7e9013759e9}, !- Schedule Type Limits Name
  {f4932a70-6323-4a65-ad68-dfadd380e566}, !- Default Day Schedule Name
  {4bd84a99-9026-4728-ad50-ffb8ae1a1260}, !- Summer Design Day Schedule Name
  {a55a9a98-58a0-410b-84a1-7bd9b00ccdf1}; !- Winter Design Day Schedule Name

OS:ScheduleTypeLimits,
  {325112c5-352f-4603-aea3-e7e9013759e9}, !- Handle
  Lights Schedule Type Limits,            !- Name