
OS:Version,
  {0055a0b8-d400-47dc-ac9f-6555f893983d}, !- Handle
  1.6.0;                                  !- Version Identifier

OS:ClimateZones,
  {135edfab-17e7-40db-a436-27d385a8cd6d}, !- Handle
  ,                                       !- Active Institution
  ,                                       !- Active Year
  ASHRAE,                                 !- Climate Zone Institution Name 1
  ANSI/ASHRAE Standard 169,               !- Climate Zone Document Name 1
  2006,                                   !- Climate Zone Document Year 1
  ,                                       !- Climate Zone Value 1
  CEC,                                    !- Climate Zone Institution Name 2
  California Climate Zone Descriptions,   !- Climate Zone Document Name 2
  1995,                                   !- Climate Zone Document Year 2
  ;                                       !- Climate Zone Value 2

OS:YearDescription,
  {513d8dda-86cb-442a-b01c-1f7f0e0ac70e}; !- Handle

OS:RadianceParameters,
  {270a96f1-3c86-4b75-a667-cdf22790e2c8}, !- Handle
  1,                                      !- Accumulated Rays per Record
  0,                                      !- Direct Threshold
  1,                                      !- Direct Certainty
  1,                                      !- Direct Jitter
  1,                                      !- Direct Pretest
  6,                                      !- Ambient Bounces VMX
  2,                                      !- Ambient Bounces DMX
  4050,                                   !- Ambient Divisions VMX
  512,                                    !- Ambient Divisions DMX
  256,                                    !- Ambient Supersamples
  0.001,                                  !- Limit Weight VMX
  0.001,                                  !- Limit Weight DMX
  500,                                    !- Klems Sampling Density
  146;                                    !- Sky Discretization Resolution

OS:SimulationControl,
  {2c487a4c-bac9-4ac5-b669-1e49d9da7c2b}, !- Handle
  ,                                       !- Do Zone Sizing Calculation
  ,                                       !- Do System Sizing Calculation
  ,                                       !- Do Plant Sizing Calculation
  No,                                     !- Run Simulation for Sizing Periods
  ,                                       !- Run Simulation for Weather File Run Periods
  0.04,                                   !- Loads Convergence Tolerance Value
  ,                                       !- Temperature Convergence Tolerance Value {deltaC}
  ,                                       !- Solar Distribution
  ,                                       !- Maximum Number of Warmup Days
  2;                                      !- Minimum Number of Warmup Days

OS:Sizing:Parameters,
  {dde5af6f-7923-4600-a28a-7556673a0266}, !- Handle
  1.25,                                   !- Heating Sizing Factor
  1.15;                                   !- Cooling Sizing Factor

OS:ProgramControl,
  {05027a99-f2b3-4aeb-afc6-1425fbb4371d}; !- Handle

OS:Timestep,
  {4ebc9f1e-4707-402e-9844-67eb1ffbd522}, !- Handle
  2;                                      !- Number of Timesteps per Hour

OS:OutputControl:ReportingTolerances,
  {65797aa2-06a9-45fe-b69d-bc6e060399d3}; !- Handle

OS:ConvergenceLimits,
  {9fc11aba-8822-4f3d-970c-46391ba4040d}; !- Handle

OS:ShadowCalculation,
  {ca758bea-4416-4626-9bba-3d8795c79bd6}, !- Handle
  7,                                      !- Calculation Frequency
  15000;                                  !- Maximum Figures in Shadow Overlap Calculations

OS:SurfaceConvectionAlgorithm:Inside,
  {aaabfc36-718a-4ab0-b622-f186ebb45230}, !- Handle
  TARP;                                   !- Algorithm

OS:SurfaceConvectionAlgorithm:Outside,
  {9a0a9f6f-4bbd-4b12-a121-9492a1fcd7d6}, !- Handle
  DOE-2;                                  !- Algorithm

OS:HeatBalanceAlgorithm,
  {9d93e563-e1e0-46d7-9e39-d1c8aceb7212}, !- Handle
  ConductionTransferFunction,             !- Algorithm
  200;                                    !- Surface Temperature Upper Limit {F}

OS:ZoneAirHeatBalanceAlgorithm,
  {8520d93e-310f-4696-9bcd-36228bfdd743}, !- Handle
  AnalyticalSolution;                     !- Algorithm

OS:ZoneAirContaminantBalance,
  {eb5fc3ae-fb22-4160-8fcb-3e3b22b000d3}; !- Handle

OS:ZoneCapacitanceMultiplier:ResearchSpecial,
  {4020ce4f-5a7a-4849-8028-8305d7b751b1}, !- Handle
  ,                                       !- Temperature Capacity Multiplier
  ,                                       !- Humidity Capacity Multiplier
  ;                                       !- Carbon Dioxide Capacity Multiplier

OS:RunPeriod,
  {28df894d-6af9-4fb8-8f56-df1753344aa3}, !- Handle
  Run Period 1,                           !- Name
  1,                                      !- Begin Month
  1,                                      !- Begin Day of Month
  12,                                     !- End Month
  31,                                     !- End Day of Month
  ,                                       !- Use Weather File Holidays and Special Days
  ,                                       !- Use Weather File Daylight Saving Period
  ,                                       !- Apply Weekend Holiday Rule
  ,                                       !- Use Weather File Rain Indicators
  ,                                       !- Use Weather File Snow Indicators
  ;                                       !- Number of Times Runperiod to be Repeated

OS:Building,
  {bf305633-c5a1-4881-9edf-ca5e1a8e1274}, !- Handle
  Building 1,                             !- Name
  ,                                       !- Building Sector Type
  ,                                       !- North Axis {deg}
  ,                                       !- Nominal Floor to Floor Height {m}
  ,                                       !- Space Type Name
  ,                                       !- Default Construction Set Name
  {9a5eae2d-26d0-4189-8d1f-0d91f9ef08d9}, !- Default Schedule Set Name
  ,                                       !- Standards Number of Stories
  ,                                       !- Standards Number of Above Ground Stories
  SecondarySchool;                        !- Standards Building Type

OS:LifeCycleCost:Parameters,
  {231cf8a0-f0e7-4251-a99f-11f0d464e661}, !- Handle
  FEMP,                                   !- Analysis Type
  ,                                       !- Discounting Convention
  ,                                       !- Inflation Approach
  ,                                       !- Real Discount Rate
  ,                                       !- Nominal Discount Rate
  ,                                       !- Inflation
  ,                                       !- Base Date Month
  ,                                       !- Base Date Year
  ,                                       !- Service Date Month
  ,                                       !- Service Date Year
  ,                                       !- Length of Study Period in Years
  ,                                       !- Tax Rate
  ,                                       !- Depreciation Method
  Yes;                                    !- Use NIST Fuel Escalation Rates

OS:Facility,
  {3ba8e45b-b833-44eb-a723-ea6c3946dc96}; !- Handle

OS:SpaceType,
  {23884cbf-9d33-48c0-ae89-6e81786b685a}, !- Handle
  SecondarySchool|BlendEdu|DOE Ref 2004|ASHRAE 169-2006-5A, !- Name
  {da8ec785-ba5a-4eba-9e93-c90cb96af213}, !- Default Construction Set Name
  ,                                       !- Default Schedule Set Name
  {43be04a3-5902-4d4a-bb88-b4bb9617b5b6}, !- Group Rendering Name
  {9a1a1f92-86a1-4cd9-aa7e-488a6d024503}, !- Design Specification Outdoor Air Object Name
  SecondarySchool,                        !- Standards Building Type
  BlendEdu;                               !- Standards Space Type

OS:Rendering:Color,
  {43be04a3-5902-4d4a-bb88-b4bb9617b5b6}, !- Handle
  Rendering Color 1,                      !- Name
  120,                                    !- Rendering Red Value
  230,                                    !- Rendering Green Value
  199;                                    !- Rendering Blue Value

OS:SpaceType,
  {37d79e67-6b81-43bf-8e84-3390d1437c44}, !- Handle
  SecondarySchool|BlendOff|DOE Ref 2004|ASHRAE 169-2006-5A, !- Name
  {da8ec785-ba5a-4eba-9e93-c90cb96af213}, !- Default Construction Set Name
  ,                                       !- Default Schedule Set Name
  {02dad858-012f-449b-af54-7cc88a94eebb}, !- Group Rendering Name
  {0e77f75b-873b-4e05-b39f-442345e17108}, !- Design Specification Outdoor Air Object Name
  SecondarySchool,                        !- Standards Building Type
  BlendOff;                               !- Standards Space Type

OS:Rendering:Color,
  {02dad858-012f-449b-af54-7cc88a94eebb}, !- Handle
  Rendering Color 2,                      !- Name
  120,                                    !- Rendering Red Value
  230,                                    !- Rendering Green Value
  199;                                    !- Rendering Blue Value

OS:SpaceType,
  {3c9d6726-e829-4dcb-80c3-4db8a7cef9be}, !- Handle
  SecondarySchool|Gym|DOE Ref 2004|ASHRAE 169-2006-5A, !- Name
  {da8ec785-ba5a-4eba-9e93-c90cb96af213}, !- Default Construction Set Name
  {8d718be2-dc90-4023-9f06-45d698739b5a}, !- Default Schedule Set Name
  {294cfb1e-6320-4c0c-b2c0-3b7726ac3590}, !- Group Rendering Name
  {81a4a9a4-18e4-42fe-8815-a246b8d62a37}, !- Design Specification Outdoor Air Object Name
  SecondarySchool,                        !- Standards Building Type
  Gym;                                    !- Standards Space Type

OS:Rendering:Color,
  {294cfb1e-6320-4c0c-b2c0-3b7726ac3590}, !- Handle
  Rendering Color 3,                      !- Name
  154,                                    !- Rendering Red Value
  230,                                    !- Rendering Green Value
  120;                                    !- Rendering Blue Value

OS:SpaceType,
  {8cd2eb6a-64df-4127-a3d3-be8e00fb6a9f}, !- Handle
  SecondarySchool|Auditorium|DOE Ref 2004|ASHRAE 169-2006-5A, !- Name
  {da8ec785-ba5a-4eba-9e93-c90cb96af213}, !- Default Construction Set Name
  {28275383-4d79-4e72-82d7-48a30072c049}, !- Default Schedule Set Name
  {134387ad-72cd-4131-9f79-862d68190620}, !- Group Rendering Name
  {fcaa71c5-2c9c-4da8-94c4-88ea3ccaa014}, !- Design Specification Outdoor Air Object Name
  SecondarySchool,                        !- Standards Building Type
  Auditorium;                             !- Standards Space Type

OS:Rendering:Color,
  {134387ad-72cd-4131-9f79-862d68190620}, !- Handle
  Rendering Color 4,                      !- Name
  230,                                    !- Rendering Red Value
  196,                                    !- Rendering Green Value
  120;                                    !- Rendering Blue Value

OS:SpaceType,
  {f44e90ec-bb0a-49d0-b6fd-ad0768e8e933}, !- Handle
  SecondarySchool|Library|DOE Ref 2004|ASHRAE 169-2006-5A, !- Name
  {da8ec785-ba5a-4eba-9e93-c90cb96af213}, !- Default Construction Set Name
  {66cefed4-8a2d-477a-ade6-476efb520ae7}, !- Default Schedule Set Name
  {750116e1-45d3-4b80-a862-5e0c4439bd4e}, !- Group Rendering Name
  {c3d550eb-3d5f-4ae5-9575-970d083a7a12}, !- Design Specification Outdoor Air Object Name
  SecondarySchool,                        !- Standards Building Type
  Library;                                !- Standards Space Type

OS:Rendering:Color,
  {750116e1-45d3-4b80-a862-5e0c4439bd4e}, !- Handle
  Rendering Color 5,                      !- Name
  230,                                    !- Rendering Red Value
  196,                                    !- Rendering Green Value
  120;                                    !- Rendering Blue Value

OS:SpaceType,
  {53c76889-a7b3-4076-8326-1fa758153b67}, !- Handle
  SecondarySchool|Cafeteria|DOE Ref 2004|ASHRAE 169-2006-5A, !- Name
  {da8ec785-ba5a-4eba-9e93-c90cb96af213}, !- Default Construction Set Name
  {cc87c48d-893d-4c28-a514-7a17b7999694}, !- Default Schedule Set Name
  {1850da69-e316-4720-832d-94f55c95b65a}, !- Group Rendering Name
  {d4d2c380-7f29-4173-96bf-186a5d5dfc0b}, !- Design Specification Outdoor Air Object Name
  SecondarySchool,                        !- Standards Building Type
  Cafeteria;                              !- Standards Space Type

OS:Rendering:Color,
  {1850da69-e316-4720-832d-94f55c95b65a}, !- Handle
  Rendering Color 6,                      !- Name
  31,                                     !- Rendering Red Value
  169,                                    !- Rendering Green Value
  34;                                     !- Rendering Blue Value

OS:SpaceType,
  {14cdbc47-e250-49b3-9e75-4ce8435ad8c0}, !- Handle
  SecondarySchool|Kitchen|DOE Ref 2004|ASHRAE 169-2006-5A, !- Name
  {da8ec785-ba5a-4eba-9e93-c90cb96af213}, !- Default Construction Set Name
  {6750dfce-ae7d-4bdf-a074-9f4e92c91502}, !- Default Schedule Set Name
  {8c4a05f7-79c4-48c2-82d7-2861f0265b50}, !- Group Rendering Name
  {5b57bba6-ab4f-44aa-8d3b-d1b5b21a2f89}, !- Design Specification Outdoor Air Object Name
  SecondarySchool,                        !- Standards Building Type
  Kitchen;                                !- Standards Space Type

OS:Rendering:Color,
  {8c4a05f7-79c4-48c2-82d7-2861f0265b50}, !- Handle
  Rendering Color 7,                      !- Name
  78,                                     !- Rendering Red Value
  222,                                    !- Rendering Green Value
  133;                                    !- Rendering Blue Value

OS:Schedule:Ruleset,
  {7e96a4ab-8901-4bdc-b103-e97d8e9de945}, !- Handle
  0800|1600|SecondarySchool|default|hoo,  !- Name
  {526b29cc-cd3d-4d8f-a1ef-4f3beb998745}, !- Schedule Type Limits Name
  {ec295fc1-ea46-4291-9d89-99b48e819404}, !- Default Day Schedule Name
  {8601b9c3-46c5-4729-8496-1152aade8e23}, !- Summer Design Day Schedule Name
  {dda7f0ed-47bd-452d-b2cd-569fe695c8fc}; !- Winter Design Day Schedule Name

OS:Schedule:Day,
  {ec295fc1-ea46-4291-9d89-99b48e819404}, !- Handle
  0800|1600|SecondarySchool|default|hoo Schedule Week Day, !- Name
  {526b29cc-cd3d-4d8f-a1ef-4f3beb998745}, !- Schedule Type Limits Name
  ,                                       !- Interpolate to Timestep
  8,                                      !- Hour 1
  0,                                      !- Minute 1
  0,                                      !- Value Until Time 1
  16,                                     !- Hour 2
  0,                                      !- Minute 2
  1,                                      !- Value Until Time 2
  24,                                     !- Hour 3
  0,                                      !- Minute 3
  0;                                      !- Value Until Time 3

OS:Schedule:Day,
  {47b10ed2-5366-4eaf-8371-f2d8d750ecec}, !- Handle
  Schedule Day 2,                         !- Name
  ,                                       !- Schedule Type Limits Name
  ,                                       !- Interpolate to Timestep
  24,                                     !- Hour 1
  0,                                      !- Minute 1
  0;                                      !- Value Until Time 1

OS:Schedule:Day,
  {dda7f0ed-47bd-452d-b2cd-569fe695c8fc}, !- Handle
  0800|1600|SecondarySchool|default|hoo Winter Design Day, !- Name
  {526b29cc-cd3d-4d8f-a1ef-4f3beb998745}, !- Schedule Type Limits Name
  ,                                       !- Interpolate to Timestep
  24,                                     !- Hour 1
  0,                                      !- Minute 1
  0;                                      !- Value Until Time 1

OS:Schedule:Day,
  {7da5b61c-7578-456e-a0ec-247ef2087ef5}, !- Handle
  Schedule Day 3,                         !- Name
  ,                                       !- Schedule Type Limits Name
  ,                                       !- Interpolate to Timestep
  24,                                     !- Hour 1
  0,                                      !- Minute 1
  0;                                      !- Value Until Time 1

OS:Schedule:Day,
  {8601b9c3-46c5-4729-8496-1152aade8e23}, !- Handle
  0800|1600|SecondarySchool|default|hoo Summer Design Day, !- Name
  {526b29cc-cd3d-4d8f-a1ef-4f3beb998745}, !- Schedule Type Limits Name
  ,                                       !- Interpolate to Timestep
  24,                                     !- Hour 1
  0,                                      !- Minute 1
  1;                                      !- Value Until Time 1

OS:DefaultScheduleSet,
  {9a5eae2d-26d0-4189-8d1f-0d91f9ef08d9}, !- Handle
  Building Hours of Operation,            !- Name
  {7e96a4ab-8901-4bdc-b103-e97d8e9de945}, !- Hours of Operation Schedule Name
  ,                                       !- Number of People Schedule Name
  ,                                       !- People Activity Level Schedule Name
  ,                                       !- Lighting Schedule Name
  ,                                       !- Electric Equipment Schedule Name
  ,                                       !- Gas Equipment Schedule Name
  ,                                       !- Hot Water Equipment Schedule Name
  ,                                       !- Infiltration Schedule Name
  ,                                       !- Steam Equipment Schedule Name
  ;                                       !- Other Equipment Schedule Name

OS:ScheduleTypeLimits,
  {526b29cc-cd3d-4d8f-a1ef-4f3beb998745}, !- Handle
  OnOff,                                  !- Name
  0,                                      !- Lower Limit Value {BasedOnField A4}
  1,                                      !- Upper Limit Value {BasedOnField A4}
  Discrete,                               !- Numeric Type
  Availability;                           !- Unit Type

OS:Schedule:Ruleset,
  {b0c4f83d-bbe6-45b5-8513-94a2a5e7deb2}, !- Handle
  0800|1600|SecondarySchool|Cafeteria|occ, !- Name
  {8e05649b-3c93-4b0d-8368-8fa466c21a54}, !- Schedule Type Limits Name
  {4617f2c2-054a-4f4f-aa23-24a1aea02e8f}, !- Default Day Schedule Name
  {c1343224-7622-45d8-8fed-2689bb5c94da}, !- Summer Design Day Schedule Name
  {90881a88-99a7-49a4-9fd2-2b4c49ae6c87}; !- Winter Design Day Schedule Name

OS:ScheduleTypeLimits,
  {8e05649b-3c93-4b0d-8368-8fa466c21a54}, !- Handle
  Occupancy Schedule Type Limits,         !- Name
  0,                                      !- Lower Limit Value {BasedOnField A4}
  1,                                      !- Upper Limit Value {BasedOnField A4}
  Continuous,                             !- Numeric Type
  Dimensionless;                          !- Unit Type

OS:Schedule:Day,
  {4617f2c2-054a-4f4f-aa23-24a1aea02e8f}, !- Handle
  0800|1600|SecondarySchool|Cafeteria|occ |default, !- Name
  {8e05649b-3c93-4b0d-8368-8fa466c21a54}, !- Schedule Type Limits Name
  ,                                       !- Interpolate to Timestep
  7,                                      !- Hour 1
  0,                                      !- Minute 1
  0,                                      !- Value Until Time 1
  9,                                      !- Hour 2
  0,                                      !- Minute 2
  0.15,                                   !- Value Until Time 2
  11,                                     !- Hour 3
  0,                                      !- Minute 3
  0.05,                                   !- Value Until Time 3
  13,                                     !- Hour 4
  0,                                      !- Minute 4
  0.95,                                   !- Value Until Time 4
  15,                                     !- Hour 5
  0,                                      !- Minute 5
  0.15,                                   !- Value Until Time 5
  24,                                     !- Hour 6
  0,                                      !- Minute 6
  0;                                      !- Value Until Time 6

OS:Schedule:Day,
  {c1343224-7622-45d8-8fed-2689bb5c94da}, !- Handle
  0800|1600|SecondarySchool|Cafeteria|occ Summer Design Day, !- Name
  {8e05649b-3c93-4b0d-8368-8fa466c21a54}, !- Schedule Type Limits Name
  ,                                       !- Interpolate to Timestep
  7,                                      !- Hour 1
  0,                                      !- Minute 1
  0,                                      !- Value Until Time 1
  9,                                      !- Hour 2
  0,                                      !- Minute 2
  0.15,                                   !- Value Until Time 2
  11,                                     !- Hour 3
  0,                                      !- Minute 3
  0.05,                                   !- Value Until Time 3
  13,                                     !- Hour 4
  0,                                      !- Minute 4
  1,                                      !- Value Until Time 4
  15,                                     !- Hour 5
  0,                                      !- Minute 5
  0.15,                                   !- Value Until Time 5
  24,                                     !- Hour 6
  0,                                      !- Minute 6
  0;                                      !- Value Until Time 6

OS:Schedule:Day,
  {90881a88-99a7-49a4-9fd2-2b4c49ae6c87}, !- Handle
  0800|1600|SecondarySchool|Cafeteria|occ Winter Design Day, !- Name
  {8e05649b-3c93-4b0d-8368-8fa466c21a54}, !- Schedule Type Limits Name
  ,                                       !- Interpolate to Timestep
  24,                                     !- Hour 1
  0,                                      !- Minute 1
  0;                                      !- Value Until Time 1

OS:Schedule:Rule,
  {54e8a926-c645-4118-a7e2-82ca89e532c0}, !- Handle
  0800|1600|SecondarySchool|Cafeteria|occ |1/1-6/30|Sat/Sun Rule, !- Name
  {b0c4f83d-bbe6-45b5-8513-94a2a5e7deb2}, !- Schedule Ruleset Name
  0,                                      !- Rule Order
  {96574867-d0d3-4fb3-ba3e-87587673675d}, !- Day Schedule Name
  Yes,                                    !- Apply Sunday
  ,                                       !- Apply Monday
  ,                                       !- Apply Tuesday
  ,                                       !- Apply Wednesday
  ,                                       !- Apply Thursday
  ,                                       !- Apply Friday
  Yes,                                    !- Apply Saturday
  ,                                       !- Apply Holiday
  DateRange,                              !- Date Specification Type
  1,                                      !- Start Month
  1,                                      !- Start Day
  6,                                      !- End Month
  30;                                     !- End Day

OS:Schedule:Day,
  {96574867-d0d3-4fb3-ba3e-87587673675d}, !- Handle
  0800|1600|SecondarySchool|Cafeteria|occ |1/1-6/30|Sat/Sun, !- Name
  {8e05649b-3c93-4b0d-8368-8fa466c21a54}, !- Schedule Type Limits Name
  ,                                       !- Interpolate to Timestep
  24,                                     !- Hour 1
  0,                                      !- Minute 1
  0;                                      !- Value Until Time 1

OS:Schedule:Rule,
  {a82e708f-ba3e-403e-806c-e2ff7cb2462b}, !- Handle
  0800|1600|SecondarySchool|Cafeteria|occ |7/1-9/1|Mon/Tue/Wed/Thu/Fri/Sat/Sun Rule, !- Name
  {b0c4f83d-bbe6-45b5-8513-94a2a5e7deb2}, !- Schedule Ruleset Name
  1,                                      !- Rule Order
  {2581bfaa-acc9-49f4-ab3b-61bc7a0b91ca}, !- Day Schedule Name
  Yes,                                    !- Apply Sunday
  Yes,                                    !- Apply Monday
  Yes,                                    !- Apply Tuesday
  Yes,                                    !- Apply Wednesday
  Yes,                                    !- Apply Thursday
  Yes,                                    !- Apply Friday
  Yes,                                    !- Apply Saturday
  ,                                       !- Apply Holiday
  DateRange,                              !- Date Specification Type
  7,                                      !- Start Month
  1,                                      !- Start Day
  9,                                      !- End Month
  1;                                      !- End Day

OS:Schedule:Day,
  {2581bfaa-acc9-49f4-ab3b-61bc7a0b91ca}, !- Handle
  0800|1600|SecondarySchool|Cafeteria|occ |7/1-9/1|Mon/Tue/Wed/Thu/Fri/Sat/Sun, !- Name
  {8e05649b-3c93-4b0d-8368-8fa466c21a54}, !- Schedule Type Limits Name
  ,                                       !- Interpolate to Timestep
  9,                                      !- Hour 1
  0,                                      !- Minute 1
  0,                                      !- Value Until Time 1
  15,                                     !- Hour 2
  0,                                      !- Minute 2
  0.25,                                   !- Value Until Time 2
  24,                                     !- Hour 3
  0,                                      !- Minute 3
  0;                                      !- Value Until Time 3

OS:Schedule:Rule,
  {ac0803a9-7213-42a1-a27b-dc02af88828a}, !- Handle
  0800|1600|SecondarySchool|Cafeteria|occ |7/1-9/1|Sat/Sun Rule, !- Name
  {b0c4f83d-bbe6-45b5-8513-94a2a5e7deb2}, !- Schedule Ruleset Name
  2,                                      !- Rule Order
  {15112d66-4e70-416d-a02a-13c6229514c0}, !- Day Schedule Name
  Yes,                                    !- Apply Sunday
  ,                                       !- Apply Monday
  ,                                       !- Apply Tuesday
  ,                                       !- Apply Wednesday
  ,                                       !- Apply Thursday
  ,                                       !- Apply Friday
  Yes,                                    !- Apply Saturday
  ,                                       !- Apply Holiday
  DateRange,                              !- Date Specification Type
  7,                                      !- Start Month
  1,                                      !- Start Day
  9,                                      !- End Month
  1;                                      !- End Day

OS:Schedule:Day,
  {15112d66-4e70-416d-a02a-13c6229514c0}, !- Handle
  0800|1600|SecondarySchool|Cafeteria|occ |7/1-9/1|Sat/Sun, !- Name
  {8e05649b-3c93-4b0d-8368-8fa466c21a54}, !- Schedule Type Limits Name
  ,                                       !- Interpolate to Timestep
  24,                                     !- Hour 1
  0,                                      !- Minute 1
  0;                                      !- Value Until Time 1

OS:Schedule:Rule,
  {beebf534-dd72-4ac7-ac5d-55d86ead24d1}, !- Handle
  0800|1600|SecondarySchool|Cafeteria|occ |9/1-12/31|Mon/Tue/Wed/Thu/Fri/Sat/Sun Rule, !- Name
  {b0c4f83d-bbe6-45b5-8513-94a2a5e7deb2}, !- Schedule Ruleset Name
  3,                                      !- Rule Order
  {937e880e-de7b-408b-a87e-4f24198d27ff}, !- Day Schedule Name
  Yes,                                    !- Apply Sunday
  Yes,                                    !- Apply Monday
  Yes,                                    !- Apply Tuesday
  Yes,                                    !- Apply Wednesday
  Yes,                                    !- Apply Thursday
  Yes,                                    !- Apply Friday
  Yes,                                    !- Apply Saturday
  ,                                       !- Apply Holiday
  DateRange,                              !- Date Specification Type
  9,                                      !- Start Month
  1,                                      !- Start Day
  12,                                     !- End Month
  31;                                     !- End Day

OS:Schedule:Day,
  {937e880e-de7b-408b-a87e-4f24198d27ff}, !- Handle
  0800|1600|SecondarySchool|Cafeteria|occ |9/1-12/31|Mon/Tue/Wed/Thu/Fri/Sat/Sun, !- Name
  {8e05649b-3c93-4b0d-8368-8fa466c21a54}, !- Schedule Type Limits Name
  ,                                       !- Interpolate to Timestep
  7,                                      !- Hour 1
  0,                                      !- Minute 1
  0,                                      !- Value Until Time 1
  9,                                      !- Hour 2
  0,                                      !- Minute 2
  0.15,                                   !- Value Until Time 2
  11,                                     !- Hour 3
  0,                                      !- Minute 3
  0.05,                                   !- Value Until Time 3
  13,                                     !- Hour 4
  0,                                      !- Minute 4
  0.95,                                   !- Value Until Time 4
  15,                                     !- Hour 5
  0,                                      !- Minute 5
  0.15,                                   !- Value Until Time 5
  24,                                     !- Hour 6
  0,                                      !- Minute 6
  0;                                      !- Value Until Time 6

OS:Schedule:Rule,
  {3d8083c6-861d-4e8a-8de3-3c06e7d97c1c}, !- Handle
  0800|1600|SecondarySchool|Cafeteria|occ |9/1-12/31|Sat/Sun Rule, !- Name
  {b0c4f83d-bbe6-45b5-8513-94a2a5e7deb2}, !- Schedule Ruleset Name
  4,                                      !- Rule Order
  {63293261-7b04-4fe8-94d5-bf3712f330d5}, !- Day Schedule Name
  Yes,                                    !- Apply Sunday
  ,                                       !- Apply Monday
  ,                                       !- Apply Tuesday
  ,                                       !- Apply Wednesday
  ,                                       !- Apply Thursday
  ,                                       !- Apply Friday
  Yes,                                    !- Apply Saturday
  ,                                       !- Apply Holiday
  DateRange,                              !- Date Specification Type