
OS:Version,
  {f7ee0765-59cb-4056-926f-f124a270d9b9}, !- Handle
  1.6.0;                                  !- Version Identifier

OS:ClimateZones,
  {135edfab-17e7-40db-a436-27d385a8cd6d}, !- Handle
  ,                                       !- Active Institution
  ,                                       !- Active Year
  ASHRAE,                                 !- Climate Zone Institution Name 1
  ANSI/ASHRAE Standard 169,               !- Climate Zone Document Name 1
  2006,                                   !- Climate Zone Document Year 1
  ,                                       !- Climate Zone Value 1
  CEC,                                    !- Climate Zone Institution Name 2
  California Climate Zone Descriptions,   !- Climate Zone Document Name 2
  1995,                                   !- Climate Zone Document Year 2
  ;                                       !- Climate Zone Value 2

OS:YearDescription,
  {513d8dda-86cb-442a-b01c-1f7f0e0ac70e}; !- Handle

OS:RadianceParameters,
  {270a96f1-3c86-4b75-a667-cdf22790e2c8}, !- Handle
  1,                                      !- Accumulated Rays per Record
  0,                                      !- Direct Threshold
  1,                                      !- Direct Certainty
  1,                                      !- Direct Jitter
  1,                                      !- Direct Pretest
  6,                                      !- Ambient Bounces VMX
  2,                                      !- Ambient Bounces DMX
  4050,                                   !- Ambient Divisions VMX
  512,                                    !- Ambient Divisions DMX
  256,                                    !- Ambient Supersamples
  0.001,                                  !- Limit Weight VMX
  0.001,                                  !- Limit Weight DMX
  500,                                    !- Klems Sampling Density
  146;                                    !- Sky Discretization Resolution

OS:SimulationControl,
  {2c487a4c-bac9-4ac5-b669-1e49d9da7c2b}, !- Handle
  ,                                       !- Do Zone Sizing Calculation
  ,                                       !- Do System Sizing Calculation
  ,                                       !- Do Plant Sizing Calculation
  No,                                     !- Run Simulation for Sizing Periods
  ,                                       !- Run Simulation for Weather File Run Periods
  0.04,                                   !- Loads Convergence Tolerance Value
  ,                                       !- Temperature Convergence Tolerance Value {deltaC}
  ,                                       !- Solar Distribution
  ,                                       !- Maximum Number of Warmup Days
  2;                                      !- Minimum Number of Warmup Days

OS:Sizing:Parameters,
  {dde5af6f-7923-4600-a28a-7556673a0266}, !- Handle
  1.25,                                   !- Heating Sizing Factor
  1.15;                                   !- Cooling Sizing Factor

OS:ProgramControl,
  {05027a99-f2b3-4aeb-afc6-1425fbb4371d}; !- Handle

OS:Timestep,
  {4ebc9f1e-4707-402e-9844-67eb1ffbd522}, !- Handle
  2;                                      !- Number of Timesteps per Hour

OS:OutputControl:ReportingTolerances,
  {65797aa2-06a9-45fe-b69d-bc6e060399d3}; !- Handle

OS:ConvergenceLimits,
  {9fc11aba-8822-4f3d-970c-46391ba4040d}; !- Handle

OS:ShadowCalculation,
  {ca758bea-4416-4626-9bba-3d8795c79bd6}, !- Handle
  7,                                      !- Calculation Frequency
  15000;                                  !- Maximum Figures in Shadow Overlap Calculations

OS:SurfaceConvectionAlgorithm:Inside,
  {aaabfc36-718a-4ab0-b622-f186ebb45230}, !- Handle
  TARP;                                   !- Algorithm

OS:SurfaceConvectionAlgorithm:Outside,
  {9a0a9f6f-4bbd-4b12-a121-9492a1fcd7d6}, !- Handle
  DOE-2;                                  !- Algorithm

OS:HeatBalanceAlgorithm,
  {9d93e563-e1e0-46d7-9e39-d1c8aceb7212}, !- Handle
  ConductionTransferFunction,             !- Algorithm
  200;                                    !- Surface Temperature Upper Limit {F}

OS:ZoneAirHeatBalanceAlgorithm,
  {8520d93e-310f-4696-9bcd-36228bfdd743}, !- Handle
  AnalyticalSolution;                     !- Algorithm

OS:ZoneAirContaminantBalance,
  {eb5fc3ae-fb22-4160-8fcb-3e3b22b000d3}; !- Handle

OS:ZoneCapacitanceMultiplier:ResearchSpecial,
  {4020ce4f-5a7a-4849-8028-8305d7b751b1}, !- Handle
  ,                                       !- Temperature Capacity Multiplier
  ,                                       !- Humidity Capacity Multiplier
  ;                                       !- Carbon Dioxide Capacity Multiplier

OS:RunPeriod,
  {28df894d-6af9-4fb8-8f56-df1753344aa3}, !- Handle
  Run Period 1,                           !- Name
  1,                                      !- Begin Month
  1,                                      !- Begin Day of Month
  12,                                     !- End Month
  31,                                     !- End Day of Month
  ,                                       !- Use Weather File Holidays and Special Days
  ,                                       !- Use Weather File Daylight Saving Period
  ,                                       !- Apply Weekend Holiday Rule
  ,                                       !- Use Weather File Rain Indicators
  ,                                       !- Use Weather File Snow Indicators
  ;                                       !- Number of Times Runperiod to be Repeated

OS:Building,
  {bf305633-c5a1-4881-9edf-ca5e1a8e1274}, !- Handle
  Building 1,                             !- Name
  ,                                       !- Building Sector Type
  ,                                       !- North Axis {deg}
  ,                                       !- Nominal Floor to Floor Height {m}
  ,                                       !- Space Type Name
  ,                                       !- Default Construction Set Name
  {a4c270ec-f4d8-43e2-9425-a983537cac21}, !- Default Schedule Set Name
  ,                                       !- Standards Number of Stories
  ,                                       !- Standards Number of Above Ground Stories
  SecondarySchool;                        !- Standards Building Type

OS:LifeCycleCost:Parameters,
  {231cf8a0-f0e7-4251-a99f-11f0d464e661}, !- Handle
  FEMP,                                   !- Analysis Type
  ,                                       !- Discounting Convention
  ,                                       !- Inflation Approach
  ,                                       !- Real Discount Rate
  ,                                       !- Nominal Discount Rate
  ,                                       !- Inflation
  ,                                       !- Base Date Month
  ,                                       !- Base Date Year
  ,                                       !- Service Date Month
  ,                                       !- Service Date Year
  ,                                       !- Length of Study Period in Years
  ,                                       !- Tax Rate
  ,                                       !- Depreciation Method
  Yes;                                    !- Use NIST Fuel Escalation Rates

OS:Facility,
  {3ba8e45b-b833-44eb-a723-ea6c3946dc96}; !- Handle

OS:SpaceType,
  {e831b65e-8235-483e-a8a4-c8506d1b6c5e}, !- Handle
  SecondarySchool|BlendEdu|DOE Ref 1980-2004|ASHRAE 169-2006-5A, !- Name
  {0e2283bc-ccc7-4bf7-ac50-8444c98b4cff}, !- Default Construction Set Name
  ,                                       !- Default Schedule Set Name
  {4cb941e0-3ced-4a4a-ac03-474e69f29eb1}, !- Group Rendering Name
  {6163ba24-f7b6-446c-80da-53e6d1f2d544}, !- Design Specification Outdoor Air Object Name
  SecondarySchool,                        !- Standards Building Type
  BlendEdu;                               !- Standards Space Type

OS:Rendering:Color,
  {4cb941e0-3ced-4a4a-ac03-474e69f29eb1}, !- Handle
  Rendering Color 1,                      !- Name
  120,                                    !- Rendering Red Value
  230,                                    !- Rendering Green Value
  199;                                    !- Rendering Blue Value

OS:SpaceType,
  {fb24179a-dcc6-4dc2-a098-734889032a89}, !- Handle
  SecondarySchool|BlendOff|DOE Ref 1980-2004|ASHRAE 169-2006-5A, !- Name
  {0e2283bc-ccc7-4bf7-ac50-8444c98b4cff}, !- Default Construction Set Name
  ,                                       !- Default Schedule Set Name
  {1d9be2d8-9d44-479a-a2d6-25149c351644}, !- Group Rendering Name
  {4955e17c-3b5b-4c75-988a-41e7a22f4001}, !- Design Specification Outdoor Air Object Name
  SecondarySchool,                        !- Standards Building Type
  BlendOff;                               !- Standards Space Type

OS:Rendering:Color,
  {1d9be2d8-9d44-479a-a2d6-25149c351644}, !- Handle
  Rendering Color 2,                      !- Name
  120,                                    !- Rendering Red Value
  230,                                    !- Rendering Green Value
  199;                                    !- Rendering Blue Value

OS:SpaceType,
  {6c4cefb5-36b8-4f85-844a-739b18eb855d}, !- Handle
  SecondarySchool|Gym|DOE Ref 1980-2004|ASHRAE 169-2006-5A, !- Name
  {0e2283bc-ccc7-4bf7-ac50-8444c98b4cff}, !- Default Construction Set Name
  {f3230fda-89b0-42cd-9490-e6781ae31e8f}, !- Default Schedule Set Name
  {56f31dea-e362-4c35-91ef-9b26438138ed}, !- Group Rendering Name
  {1068306a-c822-483f-bf87-13d09f87b5e6}, !- Design Specification Outdoor Air Object Name
  SecondarySchool,                        !- Standards Building Type
  Gym;                                    !- Standards Space Type

OS:Rendering:Color,
  {56f31dea-e362-4c35-91ef-9b26438138ed}, !- Handle
  Rendering Color 3,                      !- Name
  154,                                    !- Rendering Red Value
  230,                                    !- Rendering Green Value
  120;                                    !- Rendering Blue Value

OS:SpaceType,
  {00e1ab8e-2785-46ef-9e23-27742586cbab}, !- Handle
  SecondarySchool|Auditorium|DOE Ref 1980-2004|ASHRAE 169-2006-5A, !- Name
  {0e2283bc-ccc7-4bf7-ac50-8444c98b4cff}, !- Default Construction Set Name
  {f7843ba2-7705-42b9-9b42-3c758a1c6b31}, !- Default Schedule Set Name
  {c898025d-164d-482d-b9d2-70a2ebc1439f}, !- Group Rendering Name
  {db229d8e-cbe2-46ca-9271-590089001cb6}, !- Design Specification Outdoor Air Object Name
  SecondarySchool,                        !- Standards Building Type
  Auditorium;                             !- Standards Space Type

OS:Rendering:Color,
  {c898025d-164d-482d-b9d2-70a2ebc1439f}, !- Handle
  Rendering Color 4,                      !- Name
  230,                                    !- Rendering Red Value
  196,                                    !- Rendering Green Value
  120;                                    !- Rendering Blue Value

OS:SpaceType,
  {18cdca76-8384-4afa-8a2f-d4bbfc0d8c51}, !- Handle
  SecondarySchool|Library|DOE Ref 1980-2004|ASHRAE 169-2006-5A, !- Name
  {0e2283bc-ccc7-4bf7-ac50-8444c98b4cff}, !- Default Construction Set Name
  {fa40a7be-fdea-4b05-9f8e-9bd01899c2f6}, !- Default Schedule Set Name
  {a7ec2c5f-65c8-47f8-926b-0309866523f8}, !- Group Rendering Name
  {a60f0603-07b4-4dfd-a58e-0bd7cd55765d}, !- Design Specification Outdoor Air Object Name
  SecondarySchool,                        !- Standards Building Type
  Library;                                !- Standards Space Type

OS:Rendering:Color,
  {a7ec2c5f-65c8-47f8-926b-0309866523f8}, !- Handle
  Rendering Color 5,                      !- Name
  230,                                    !- Rendering Red Value
  196,                                    !- Rendering Green Value
  120;                                    !- Rendering Blue Value

OS:SpaceType,
  {6ff8cf49-9997-4b49-acf7-bb127e7478ba}, !- Handle
  SecondarySchool|Cafeteria|DOE Ref 1980-2004|ASHRAE 169-2006-5A, !- Name
  {0e2283bc-ccc7-4bf7-ac50-8444c98b4cff}, !- Default Construction Set Name
  {8e45225d-d3a1-442d-9858-b7446a0a804e}, !- Default Schedule Set Name
  {c8713711-6ffc-4fe8-bc30-e101c069f966}, !- Group Rendering Name
  {a95a1242-d862-4839-a8dd-b1a16eb1fdc7}, !- Design Specification Outdoor Air Object Name
  SecondarySchool,                        !- Standards Building Type
  Cafeteria;                              !- Standards Space Type

OS:Rendering:Color,
  {c8713711-6ffc-4fe8-bc30-e101c069f966}, !- Handle
  Rendering Color 6,                      !- Name
  31,                                     !- Rendering Red Value
  169,                                    !- Rendering Green Value
  34;                                     !- Rendering Blue Value

OS:SpaceType,
  {012bad8d-d603-482b-ad40-a613e38e0fa2}, !- Handle
  SecondarySchool|Kitchen|DOE Ref 1980-2004|ASHRAE 169-2006-5A, !- Name
  {0e2283bc-ccc7-4bf7-ac50-8444c98b4cff}, !- Default Construction Set Name
  {56dba56f-4953-429c-b5ac-2fe961320e37}, !- Default Schedule Set Name
  {e3e80277-901a-4abd-a8aa-0eceef514362}, !- Group Rendering Name
  {c5089afa-6cfe-4d52-b548-ab8699f289a3}, !- Design Specification Outdoor Air Object Name
  SecondarySchool,                        !- Standards Building Type
  Kitchen;                                !- Standards Space Type

OS:Rendering:Color,
  {e3e80277-901a-4abd-a8aa-0eceef514362}, !- Handle
  Rendering Color 7,                      !- Name
  78,                                     !- Rendering Red Value
  222,                                    !- Rendering Green Value
  133;                                    !- Rendering Blue Value

OS:Schedule:Ruleset,
  {16ded041-26b6-4f0a-91a8-0b2a72b32f74}, !- Handle
  0800|1600|SecondarySchool|default|hoo,  !- Name
  {5edf617f-ec03-4426-8ed4-51fd996ccd06}, !- Schedule Type Limits Name
  {c816c6e5-b6c2-429e-8ce8-976d2af1b496}, !- Default Day Schedule Name
  {9bd6f38a-fb93-4616-bf69-c5a2f756777b}, !- Summer Design Day Schedule Name
  {ffd33e34-39e4-4eb7-9cfb-cf9cd51a5c10}; !- Winter Design Day Schedule Name

OS:Schedule:Day,
  {c816c6e5-b6c2-429e-8ce8-976d2af1b496}, !- Handle
  0800|1600|SecondarySchool|default|hoo Schedule Week Day, !- Name
  {5edf617f-ec03-4426-8ed4-51fd996ccd06}, !- Schedule Type Limits Name
  ,                                       !- Interpolate to Timestep
  8,                                      !- Hour 1
  0,                                      !- Minute 1
  0,                                      !- Value Until Time 1
  16,                                     !- Hour 2
  0,                                      !- Minute 2
  1,                                      !- Value Until Time 2
  24,                                     !- Hour 3
  0,                                      !- Minute 3
  0;                                      !- Value Until Time 3

OS:Schedule:Day,
  {14cb7004-0bf9-4080-8de3-f58d2fcab3c2}, !- Handle
  Schedule Day 2,                         !- Name
  ,                                       !- Schedule Type Limits Name
  ,                                       !- Interpolate to Timestep
  24,                                     !- Hour 1
  0,                                      !- Minute 1
  0;                                      !- Value Until Time 1

OS:Schedule:Day,
  {ffd33e34-39e4-4eb7-9cfb-cf9cd51a5c10}, !- Handle
  0800|1600|SecondarySchool|default|hoo Winter Design Day, !- Name
  {5edf617f-ec03-4426-8ed4-51fd996ccd06}, !- Schedule Type Limits Name
  ,                                       !- Interpolate to Timestep
  24,                                     !- Hour 1
  0,                                      !- Minute 1
  0;                                      !- Value Until Time 1

OS:Schedule:Day,
  {e7a532d6-c293-4306-a7a8-84b09d13d994}, !- Handle
  Schedule Day 3,                         !- Name
  ,                                       !- Schedule Type Limits Name
  ,                                       !- Interpolate to Timestep
  24,                                     !- Hour 1
  0,                                      !- Minute 1
  0;                                      !- Value Until Time 1

OS:Schedule:Day,
  {9bd6f38a-fb93-4616-bf69-c5a2f756777b}, !- Handle
  0800|1600|SecondarySchool|default|hoo Summer Design Day, !- Name
  {5edf617f-ec03-4426-8ed4-51fd996ccd06}, !- Schedule Type Limits Name
  ,                                       !- Interpolate to Timestep
  24,                                     !- Hour 1
  0,                                      !- Minute 1
  1;                                      !- Value Until Time 1

OS:DefaultScheduleSet,
  {a4c270ec-f4d8-43e2-9425-a983537cac21}, !- Handle
  Building Hours of Operation,            !- Name
  {16ded041-26b6-4f0a-91a8-0b2a72b32f74}, !- Hours of Operation Schedule Name
  ,                                       !- Number of People Schedule Name
  ,                                       !- People Activity Level Schedule Name
  ,                                       !- Lighting Schedule Name
  ,                                       !- Electric Equipment Schedule Name
  ,                                       !- Gas Equipment Schedule Name
  ,                                       !- Hot Water Equipment Schedule Name
  ,                                       !- Infiltration Schedule Name
  ,                                       !- Steam Equipment Schedule Name
  ;                                       !- Other Equipment Schedule Name

OS:ScheduleTypeLimits,
  {5edf617f-ec03-4426-8ed4-51fd996ccd06}, !- Handle
  OnOff,                                  !- Name
  0,                                      !- Lower Limit Value {BasedOnField A4}
  1,                                      !- Upper Limit Value {BasedOnField A4}
  Discrete,                               !- Numeric Type
  Availability;                           !- Unit Type

OS:Schedule:Ruleset,
  {aa21a220-ed01-4ee3-ba1d-10c3cfa623e7}, !- Handle
  0800|1600|SecondarySchool|Cafeteria|occ, !- Name
  {3d38cb49-03e8-4911-b75f-85f2ff383192}, !- Schedule Type Limits Name
  {bd3f1440-69e6-41af-a1c1-62e90707530d}, !- Default Day Schedule Name
  {e8c4407d-9fac-475b-a24f-61f2c98d32aa}, !- Summer Design Day Schedule Name
  {69e24239-d437-4cdf-92ea-f1c98d75fe75}; !- Winter Design Day Schedule Name

OS:ScheduleTypeLimits,
  {3d38cb49-03e8-4911-b75f-85f2ff383192}, !- Handle
  Occupancy Schedule Type Limits,         !- Name
  0,                                      !- Lower Limit Value {BasedOnField A4}
  1,                                      !- Upper Limit Value {BasedOnField A4}
  Continuous,                             !- Numeric Type
  Dimensionless;                          !- Unit Type

OS:Schedule:Day,
  {bd3f1440-69e6-41af-a1c1-62e90707530d}, !- Handle
  0800|1600|SecondarySchool|Cafeteria|occ |default, !- Name
  {3d38cb49-03e8-4911-b75f-85f2ff383192}, !- Schedule Type Limits Name
  ,                                       !- Interpolate to Timestep
  7,                                      !- Hour 1
  0,                                      !- Minute 1
  0,                                      !- Value Until Time 1
  9,                                      !- Hour 2
  0,                                      !- Minute 2
  0.15,                                   !- Value Until Time 2
  11,                                     !- Hour 3
  0,                                      !- Minute 3
  0.05,                                   !- Value Until Time 3
  13,                                     !- Hour 4
  0,                                      !- Minute 4
  0.95,                                   !- Value Until Time 4
  15,                                     !- Hour 5
  0,                                      !- Minute 5
  0.15,                                   !- Value Until Time 5
  24,                                     !- Hour 6
  0,                                      !- Minute 6
  0;                                      !- Value Until Time 6

OS:Schedule:Day,
  {e8c4407d-9fac-475b-a24f-61f2c98d32aa}, !- Handle
  0800|1600|SecondarySchool|Cafeteria|occ Summer Design Day, !- Name
  {3d38cb49-03e8-4911-b75f-85f2ff383192}, !- Schedule Type Limits Name
  ,                                       !- Interpolate to Timestep
  7,                                      !- Hour 1
  0,                                      !- Minute 1
  0,                                      !- Value Until Time 1
  9,                                      !- Hour 2
  0,                                      !- Minute 2
  0.15,                                   !- Value Until Time 2
  11,                                     !- Hour 3
  0,                                      !- Minute 3
  0.05,                                   !- Value Until Time 3
  13,                                     !- Hour 4
  0,                                      !- Minute 4
  1,                                      !- Value Until Time 4
  15,                                     !- Hour 5
  0,                                      !- Minute 5
  0.15,                                   !- Value Until Time 5
  24,                                     !- Hour 6
  0,                                      !- Minute 6
  0;                                      !- Value Until Time 6

OS:Schedule:Day,
  {69e24239-d437-4cdf-92ea-f1c98d75fe75}, !- Handle
  0800|1600|SecondarySchool|Cafeteria|occ Winter Design Day, !- Name
  {3d38cb49-03e8-4911-b75f-85f2ff383192}, !- Schedule Type Limits Name
  ,                                       !- Interpolate to Timestep
  24,                                     !- Hour 1
  0,                                      !- Minute 1
  0;                                      !- Value Until Time 1

OS:Schedule:Rule,
  {72e40a7e-2be7-4e32-88d1-5057562b3b1d}, !- Handle
  0800|1600|SecondarySchool|Cafeteria|occ |1/1-6/30|Sat/Sun Rule, !- Name
  {aa21a220-ed01-4ee3-ba1d-10c3cfa623e7}, !- Schedule Ruleset Name
  0,                                      !- Rule Order
  {1f0f9acc-ccbc-4269-8a0e-4643e48bdae6}, !- Day Schedule Name
  Yes,                                    !- Apply Sunday
  ,                                       !- Apply Monday
  ,                                       !- Apply Tuesday
  ,                                       !- Apply Wednesday
  ,                                       !- Apply Thursday
  ,                                       !- Apply Friday
  Yes,                                    !- Apply Saturday
  ,                                       !- Apply Holiday
  DateRange,                              !- Date Specification Type
  1,                                      !- Start Month
  1,                                      !- Start Day
  6,                                      !- End Month
  30;                                     !- End Day

OS:Schedule:Day,
  {1f0f9acc-ccbc-4269-8a0e-4643e48bdae6}, !- Handle
  0800|1600|SecondarySchool|Cafeteria|occ |1/1-6/30|Sat/Sun, !- Name
  {3d38cb49-03e8-4911-b75f-85f2ff383192}, !- Schedule Type Limits Name
  ,                                       !- Interpolate to Timestep
  24,                                     !- Hour 1
  0,                                      !- Minute 1
  0;                                      !- Value Until Time 1

OS:Schedule:Rule,
  {83cbc791-12f4-4d20-bbe5-87b84edcee4e}, !- Handle
  0800|1600|SecondarySchool|Cafeteria|occ |7/1-9/1|Mon/Tue/Wed/Thu/Fri/Sat/Sun Rule, !- Name
  {aa21a220-ed01-4ee3-ba1d-10c3cfa623e7}, !- Schedule Ruleset Name
  1,                                      !- Rule Order
  {cb332644-61b4-4907-97d6-89d1da7bb7f9}, !- Day Schedule Name
  Yes,                                    !- Apply Sunday
  Yes,                                    !- Apply Monday
  Yes,                                    !- Apply Tuesday
  Yes,                                    !- Apply Wednesday
  Yes,                                    !- Apply Thursday
  Yes,                                    !- Apply Friday
  Yes,                                    !- Apply Saturday
  ,                                       !- Apply Holiday
  DateRange,                              !- Date Specification Type
  7,                                      !- Start Month
  1,                                      !- Start Day
  9,                                      !- End Month
  1;                                      !- End Day

OS:Schedule:Day,
  {cb332644-61b4-4907-97d6-89d1da7bb7f9}, !- Handle
  0800|1600|SecondarySchool|Cafeteria|occ |7/1-9/1|Mon/Tue/Wed/Thu/Fri/Sat/Sun, !- Name
  {3d38cb49-03e8-4911-b75f-85f2ff383192}, !- Schedule Type Limits Name
  ,                                       !- Interpolate to Timestep
  9,                                      !- Hour 1
  0,                                      !- Minute 1
  0,                                      !- Value Until Time 1
  15,                                     !- Hour 2
  0,                                      !- Minute 2
  0.25,                                   !- Value Until Time 2
  24,                                     !- Hour 3
  0,                                      !- Minute 3
  0;                                      !- Value Until Time 3

OS:Schedule:Rule,
  {082276b1-fab3-4d30-8236-98edd2117502}, !- Handle
  0800|1600|SecondarySchool|Cafeteria|occ |7/1-9/1|Sat/Sun Rule, !- Name
  {aa21a220-ed01-4ee3-ba1d-10c3cfa623e7}, !- Schedule Ruleset Name
  2,                                      !- Rule Order
  {7de99ab0-3d03-4df5-a060-3c3d1c2d68ab}, !- Day Schedule Name
  Yes,                                    !- Apply Sunday
  ,                                       !- Apply Monday
  ,                                       !- Apply Tuesday
  ,                                       !- Apply Wednesday
  ,                                       !- Apply Thursday
  ,                                       !- Apply Friday
  Yes,                                    !- Apply Saturday
  ,                                       !- Apply Holiday
  DateRange,                              !- Date Specification Type
  7,                                      !- Start Month
  1,                                      !- Start Day
  9,                                      !- End Month
  1;                                      !- End Day

OS:Schedule:Day,
  {7de99ab0-3d03-4df5-a060-3c3d1c2d68ab}, !- Handle
  0800|1600|SecondarySchool|Cafeteria|occ |7/1-9/1|Sat/Sun, !- Name
  {3d38cb49-03e8-4911-b75f-85f2ff383192}, !- Schedule Type Limits Name
  ,                                       !- Interpolate to Timestep
  24,                                     !- Hour 1
  0,                                      !- Minute 1
  0;                                      !- Value Until Time 1

OS:Schedule:Rule,
  {6e236687-b04d-44d4-9fcf-bba748ea9cf2}, !- Handle
  0800|1600|SecondarySchool|Cafeteria|occ |9/1-12/31|Mon/Tue/Wed/Thu/Fri/Sat/Sun Rule, !- Name
  {aa21a220-ed01-4ee3-ba1d-10c3cfa623e7}, !- Schedule Ruleset Name
  3,                                      !- Rule Order
  {dfba245c-9afe-4646-8f45-c9334eec0895}, !- Day Schedule Name
  Yes,                                    !- Apply Sunday
  Yes,                                    !- Apply Monday
  Yes,                                    !- Apply Tuesday
  Yes,                                    !- Apply Wednesday
  Yes,                                    !- Apply Thursday
  Yes,                                    !- Apply Friday
  Yes,                                    !- Apply Saturday
  ,                                       !- Apply Holiday
  DateRange,                              !- Date Specification Type
  9,                                      !- Start Month
  1,                                      !- Start Day
  12,                                     !- End Month
  31;                                     !- End Day

OS:Schedule:Day,
  {dfba245c-9afe-4646-8f45-c9334eec0895}, !- Handle
  0800|1600|SecondarySchool|Cafeteria|occ |9/1-12/31|Mon/Tue/Wed/Thu/Fri/Sat/Sun, !- Name
  {3d38cb49-03e8-4911-b75f-85f2ff383192}, !- Schedule Type Limits Name
  ,                                       !- Interpolate to Timestep
  7,                                      !- Hour 1
  0,                                      !- Minute 1
  0,                                      !- Value Until Time 1
  9,                                      !- Hour 2
  0,                                      !- Minute 2
  0.15,                                   !- Value Until Time 2
  11,                                     !- Hour 3
  0,                                      !- Minute 3
  0.05,                                   !- Value Until Time 3
  13,                                     !- Hour 4
  0,                                      !- Minute 4
  0.95,                                   !- Value Until Time 4
  15,                                     !- Hour 5
  0,                                      !- Minute 5
  0.15,                                   !- Value Until Time 5
  24,                                     !- Hour 6
  0,                                      !- Minute 6
  0;                                      !- Value Until Time 6

OS:Schedule:Rule,
  {a8d85847-6c2e-4e8d-bcf3-1d88719f776c}, !- Handle
  0800|1600|SecondarySchool|Cafeteria|occ |9/1-12/31|Sat/Sun Rule, !- Name
  {aa21a220-ed01-4ee3-ba1d-10c3cfa623e7}, !- Schedule Ruleset Name
  4,                                      !- Rule Order
  {c90380d8-b8dd-4cae-b237-67d634a76f4c}, !- Day Schedule Name
  Yes,                                    !- Apply Sunday
  ,                                       !- Apply Monday
  ,                                       !- Apply Tuesday
  ,                                       !- Apply Wednesday
  ,                                       !- Apply Thursday
  ,                                       !- Apply Friday
  Yes,                                    !- Apply Saturday
  ,                                       !- Apply Holiday