
OS:Version,
  {c97c4a94-ed82-450d-8792-475ae378a722}, !- Handle
  1.5.5;                                  !- Version Identifier

OS:ClimateZones,
  {135edfab-17e7-40db-a436-27d385a8cd6d}, !- Handle
  ,                                       !- Active Institution
  ,                                       !- Active Year
  ASHRAE,                                 !- Climate Zone Institution Name 1
  ANSI/ASHRAE Standard 169,               !- Climate Zone Document Name 1
  2006,                                   !- Climate Zone Document Year 1
  ,                                       !- Climate Zone Value 1
  CEC,                                    !- Climate Zone Institution Name 2
  California Climate Zone Descriptions,   !- Climate Zone Document Name 2
  1995,                                   !- Climate Zone Document Year 2
  ;                                       !- Climate Zone Value 2

OS:YearDescription,
  {513d8dda-86cb-442a-b01c-1f7f0e0ac70e}; !- Handle

OS:RadianceParameters,
  {270a96f1-3c86-4b75-a667-cdf22790e2c8}, !- Handle
  1,                                      !- Accumulated Rays per Record
  0,                                      !- Direct Threshold
  1,                                      !- Direct Certainty
  1,                                      !- Direct Jitter
  1,                                      !- Direct Pretest
  6,                                      !- Ambient Bounces VMX
  2,                                      !- Ambient Bounces DMX
  4050,                                   !- Ambient Divisions VMX
  512,                                    !- Ambient Divisions DMX
  256,                                    !- Ambient Supersamples
  0.001,                                  !- Limit Weight VMX
  0.001,                                  !- Limit Weight DMX
  500,                                    !- Klems Sampling Density
  146;                                    !- Sky Discretization Resolution

OS:SimulationControl,
  {2c487a4c-bac9-4ac5-b669-1e49d9da7c2b}, !- Handle
  ,                                       !- Do Zone Sizing Calculation
  ,                                       !- Do System Sizing Calculation
  ,                                       !- Do Plant Sizing Calculation
  No,                                     !- Run Simulation for Sizing Periods
  ,                                       !- Run Simulation for Weather File Run Periods
  0.04,                                   !- Loads Convergence Tolerance Value
  ,                                       !- Temperature Convergence Tolerance Value {deltaC}
  ,                                       !- Solar Distribution
  ,                                       !- Maximum Number of Warmup Days
  2;                                      !- Minimum Number of Warmup Days

OS:Sizing:Parameters,
  {dde5af6f-7923-4600-a28a-7556673a0266}, !- Handle
  1.25,                                   !- Heating Sizing Factor
  1.15;                                   !- Cooling Sizing Factor

OS:ProgramControl,
  {05027a99-f2b3-4aeb-afc6-1425fbb4371d}; !- Handle

OS:Timestep,
  {4ebc9f1e-4707-402e-9844-67eb1ffbd522}, !- Handle
  2;                                      !- Number of Timesteps per Hour

OS:OutputControl:ReportingTolerances,
  {65797aa2-06a9-45fe-b69d-bc6e060399d3}; !- Handle

OS:ConvergenceLimits,
  {9fc11aba-8822-4f3d-970c-46391ba4040d}; !- Handle

OS:ShadowCalculation,
  {ca758bea-4416-4626-9bba-3d8795c79bd6}, !- Handle
  7,                                      !- Calculation Frequency
  15000;                                  !- Maximum Figures in Shadow Overlap Calculations

OS:SurfaceConvectionAlgorithm:Inside,
  {aaabfc36-718a-4ab0-b622-f186ebb45230}, !- Handle
  TARP;                                   !- Algorithm

OS:SurfaceConvectionAlgorithm:Outside,
  {9a0a9f6f-4bbd-4b12-a121-9492a1fcd7d6}, !- Handle
  DOE-2;                                  !- Algorithm

OS:HeatBalanceAlgorithm,
  {9d93e563-e1e0-46d7-9e39-d1c8aceb7212}, !- Handle
  ConductionTransferFunction,             !- Algorithm
  200;                                    !- Surface Temperature Upper Limit {F}

OS:ZoneAirHeatBalanceAlgorithm,
  {8520d93e-310f-4696-9bcd-36228bfdd743}, !- Handle
  AnalyticalSolution;                     !- Algorithm

OS:ZoneAirContaminantBalance,
  {eb5fc3ae-fb22-4160-8fcb-3e3b22b000d3}; !- Handle

OS:ZoneCapacitanceMultiplier:ResearchSpecial,
  {4020ce4f-5a7a-4849-8028-8305d7b751b1}, !- Handle
  ,                                       !- Temperature Capacity Multiplier
  ,                                       !- Humidity Capacity Multiplier
  ;                                       !- Carbon Dioxide Capacity Multiplier

OS:RunPeriod,
  {28df894d-6af9-4fb8-8f56-df1753344aa3}, !- Handle
  Run Period 1,                           !- Name
  1,                                      !- Begin Month
  1,                                      !- Begin Day of Month
  12,                                     !- End Month
  31,                                     !- End Day of Month
  ,                                       !- Use Weather File Holidays and Special Days
  ,                                       !- Use Weather File Daylight Saving Period
  ,                                       !- Apply Weekend Holiday Rule
  ,                                       !- Use Weather File Rain Indicators
  ,                                       !- Use Weather File Snow Indicators
  ;                                       !- Number of Times Runperiod to be Repeated

OS:Building,
  {bf305633-c5a1-4881-9edf-ca5e1a8e1274}, !- Handle
  Building 1,                             !- Name
  ,                                       !- Building Sector Type
  ,                                       !- North Axis {deg}
  ,                                       !- Nominal Floor to Floor Height {m}
  ,                                       !- Space Type Name
  ,                                       !- Default Construction Set Name
  {8f81fbc8-fbe0-4fd8-9fd5-1ef31a0af263}, !- Default Schedule Set Name
  ,                                       !- Standards Number of Stories
  ,                                       !- Standards Number of Above Ground Stories
  SecondarySchool;                        !- Standards Building Type

OS:LifeCycleCost:Parameters,
  {231cf8a0-f0e7-4251-a99f-11f0d464e661}, !- Handle
  FEMP,                                   !- Analysis Type
  ,                                       !- Discounting Convention
  ,                                       !- Inflation Approach
  ,                                       !- Real Discount Rate
  ,                                       !- Nominal Discount Rate
  ,                                       !- Inflation
  ,                                       !- Base Date Month
  ,                                       !- Base Date Year
  ,                                       !- Service Date Month
  ,                                       !- Service Date Year
  ,                                       !- Length of Study Period in Years
  ,                                       !- Tax Rate
  ,                                       !- Depreciation Method
  Yes;                                    !- Use NIST Fuel Escalation Rates

OS:Facility,
  {3ba8e45b-b833-44eb-a723-ea6c3946dc96}; !- Handle

OS:SpaceType,
  {2d71c6d5-56b1-4b77-aae9-e17473a8329a}, !- Handle
  SecondarySchool|BlendEdu|DOE Ref 2004|ASHRAE 169-2006-5A, !- Name
  {828b10b1-f325-4c30-8f4d-b95ff41c079a}, !- Default Construction Set Name
  ,                                       !- Default Schedule Set Name
  {b1b7f25d-2f13-4354-9ca8-660c5deea501}, !- Group Rendering Name
  {a50ce615-2e77-4234-9e29-3a9b32ef676f}, !- Design Specification Outdoor Air Object Name
  SecondarySchool,                        !- Standards Building Type
  BlendEdu;                               !- Standards Space Type

OS:Rendering:Color,
  {b1b7f25d-2f13-4354-9ca8-660c5deea501}, !- Handle
  Rendering Color 1,                      !- Name
  120,                                    !- Rendering Red Value
  230,                                    !- Rendering Green Value
  199;                                    !- Rendering Blue Value

OS:SpaceType,
  {5fe029fc-ef7f-41ef-8d75-d41e53a7b5e4}, !- Handle
  SecondarySchool|BlendOff|DOE Ref 2004|ASHRAE 169-2006-5A, !- Name
  {828b10b1-f325-4c30-8f4d-b95ff41c079a}, !- Default Construction Set Name
  ,                                       !- Default Schedule Set Name
  {2ead50a9-425e-4a7a-b733-b7b333c002a3}, !- Group Rendering Name
  {86f683e3-4b92-45f9-9371-36547bda8ba3}, !- Design Specification Outdoor Air Object Name
  SecondarySchool,                        !- Standards Building Type
  BlendOff;                               !- Standards Space Type

OS:Rendering:Color,
  {2ead50a9-425e-4a7a-b733-b7b333c002a3}, !- Handle
  Rendering Color 2,                      !- Name
  120,                                    !- Rendering Red Value
  230,                                    !- Rendering Green Value
  199;                                    !- Rendering Blue Value

OS:SpaceType,
  {05eeae8d-24ea-4b9d-ae5a-727a8a4878ef}, !- Handle
  SecondarySchool|Gym|DOE Ref 2004|ASHRAE 169-2006-5A, !- Name
  {828b10b1-f325-4c30-8f4d-b95ff41c079a}, !- Default Construction Set Name
  {dfe17573-6248-4d3e-ad45-b3922bc9a802}, !- Default Schedule Set Name
  {be8358ad-9044-42b5-bd6d-1bf6f02e7b27}, !- Group Rendering Name
  {40e13a7f-b406-4e8e-8d3d-167d04ed1602}, !- Design Specification Outdoor Air Object Name
  SecondarySchool,                        !- Standards Building Type
  Gym;                                    !- Standards Space Type

OS:Rendering:Color,
  {be8358ad-9044-42b5-bd6d-1bf6f02e7b27}, !- Handle
  Rendering Color 3,                      !- Name
  154,                                    !- Rendering Red Value
  230,                                    !- Rendering Green Value
  120;                                    !- Rendering Blue Value

OS:SpaceType,
  {a2ed6f0d-3372-4762-8a3e-94402bfcc849}, !- Handle
  SecondarySchool|Auditorium|DOE Ref 2004|ASHRAE 169-2006-5A, !- Name
  {828b10b1-f325-4c30-8f4d-b95ff41c079a}, !- Default Construction Set Name
  {b7b452ed-b993-475f-a640-85c0b70badb6}, !- Default Schedule Set Name
  {abc5328a-230c-4189-9961-ed41cb4eb75d}, !- Group Rendering Name
  {e4bffda9-f214-4014-ba0b-dc73069c6e09}, !- Design Specification Outdoor Air Object Name
  SecondarySchool,                        !- Standards Building Type
  Auditorium;                             !- Standards Space Type

OS:Rendering:Color,
  {abc5328a-230c-4189-9961-ed41cb4eb75d}, !- Handle
  Rendering Color 4,                      !- Name
  230,                                    !- Rendering Red Value
  196,                                    !- Rendering Green Value
  120;                                    !- Rendering Blue Value

OS:SpaceType,
  {e3a09612-17d7-41e3-ad0a-69f4085b55d6}, !- Handle
  SecondarySchool|Library|DOE Ref 2004|ASHRAE 169-2006-5A, !- Name
  {828b10b1-f325-4c30-8f4d-b95ff41c079a}, !- Default Construction Set Name
  {31bbc10d-cbac-49db-98eb-13491b15dade}, !- Default Schedule Set Name
  {a8b174bd-0f0d-4d9c-a776-fddb2d70f9c8}, !- Group Rendering Name
  {d1217033-2192-4573-8e74-12b8bddf14c6}, !- Design Specification Outdoor Air Object Name
  SecondarySchool,                        !- Standards Building Type
  Library;                                !- Standards Space Type

OS:Rendering:Color,
  {a8b174bd-0f0d-4d9c-a776-fddb2d70f9c8}, !- Handle
  Rendering Color 5,                      !- Name
  230,                                    !- Rendering Red Value
  196,                                    !- Rendering Green Value
  120;                                    !- Rendering Blue Value

OS:SpaceType,
  {39787d7a-2df7-458f-bc7f-60ea1a33117d}, !- Handle
  SecondarySchool|Cafeteria|DOE Ref 2004|ASHRAE 169-2006-5A, !- Name
  {828b10b1-f325-4c30-8f4d-b95ff41c079a}, !- Default Construction Set Name
  {4c64424a-f960-40a4-bf43-c302d34c8906}, !- Default Schedule Set Name
  {5817eb08-cd9c-4af7-b5fb-77916b4d2046}, !- Group Rendering Name
  {71d8bfb6-6aaa-45d3-85ae-94e450bc3cd5}, !- Design Specification Outdoor Air Object Name
  SecondarySchool,                        !- Standards Building Type
  Cafeteria;                              !- Standards Space Type

OS:Rendering:Color,
  {5817eb08-cd9c-4af7-b5fb-77916b4d2046}, !- Handle
  Rendering Color 6,                      !- Name
  31,                                     !- Rendering Red Value
  169,                                    !- Rendering Green Value
  34;                                     !- Rendering Blue Value

OS:SpaceType,
  {a47b751e-8bb2-4625-a318-32cff673a3c7}, !- Handle
  SecondarySchool|Kitchen|DOE Ref 2004|ASHRAE 169-2006-5A, !- Name
  {828b10b1-f325-4c30-8f4d-b95ff41c079a}, !- Default Construction Set Name
  {e1bb6947-33bb-4cef-a61c-a57f6adb1db3}, !- Default Schedule Set Name
  {6e8d1d51-b7a7-42f2-9cda-b111aca8e45a}, !- Group Rendering Name
  {547c0508-cc97-409d-8a2c-27fe7b8e5304}, !- Design Specification Outdoor Air Object Name
  SecondarySchool,                        !- Standards Building Type
  Kitchen;                                !- Standards Space Type

OS:Rendering:Color,
  {6e8d1d51-b7a7-42f2-9cda-b111aca8e45a}, !- Handle
  Rendering Color 7,                      !- Name
  78,                                     !- Rendering Red Value
  222,                                    !- Rendering Green Value
  133;                                    !- Rendering Blue Value

OS:Schedule:Ruleset,
  {148e929c-df6a-4862-bd20-6a6efefd6ebe}, !- Handle
  0800|1600|SecondarySchool|default|hoo,  !- Name
  {4216eadc-3c6d-48e2-bb3c-7f4d42a39f35}, !- Schedule Type Limits Name
  {abf8422a-202a-49e8-9465-bc130d644fe4}, !- Default Day Schedule Name
  {750c496d-81f0-43d7-af13-a71f4095d46f}, !- Summer Design Day Schedule Name
  {3bb9588e-c7fb-4f0f-a2ef-e9cb15e007ac}; !- Winter Design Day Schedule Name

OS:Schedule:Day,
  {abf8422a-202a-49e8-9465-bc130d644fe4}, !- Handle
  0800|1600|SecondarySchool|default|hoo Schedule Week Day, !- Name
  {4216eadc-3c6d-48e2-bb3c-7f4d42a39f35}, !- Schedule Type Limits Name
  ,                                       !- Interpolate to Timestep
  8,                                      !- Hour 1
  0,                                      !- Minute 1
  0,                                      !- Value Until Time 1
  16,                                     !- Hour 2
  0,                                      !- Minute 2
  1,                                      !- Value Until Time 2
  24,                                     !- Hour 3
  0,                                      !- Minute 3
  0;                                      !- Value Until Time 3

OS:Schedule:Day,
  {4ec20ff3-6936-4218-827b-dd9aff9d885c}, !- Handle
  Schedule Day 2,                         !- Name
  ,                                       !- Schedule Type Limits Name
  ,                                       !- Interpolate to Timestep
  24,                                     !- Hour 1
  0,                                      !- Minute 1
  0;                                      !- Value Until Time 1

OS:Schedule:Day,
  {3bb9588e-c7fb-4f0f-a2ef-e9cb15e007ac}, !- Handle
  0800|1600|SecondarySchool|default|hoo Winter Design Day, !- Name
  {4216eadc-3c6d-48e2-bb3c-7f4d42a39f35}, !- Schedule Type Limits Name
  ,                                       !- Interpolate to Timestep
  24,                                     !- Hour 1
  0,                                      !- Minute 1
  0;                                      !- Value Until Time 1

OS:Schedule:Day,
  {8cc6414b-782d-40ad-b6dd-315ff965f6c5}, !- Handle
  Schedule Day 3,                         !- Name
  ,                                       !- Schedule Type Limits Name
  ,                                       !- Interpolate to Timestep
  24,                                     !- Hour 1
  0,                                      !- Minute 1
  0;                                      !- Value Until Time 1

OS:Schedule:Day,
  {750c496d-81f0-43d7-af13-a71f4095d46f}, !- Handle
  0800|1600|SecondarySchool|default|hoo Summer Design Day, !- Name
  {4216eadc-3c6d-48e2-bb3c-7f4d42a39f35}, !- Schedule Type Limits Name
  ,                                       !- Interpolate to Timestep
  24,                                     !- Hour 1
  0,                                      !- Minute 1
  1;                                      !- Value Until Time 1

OS:DefaultScheduleSet,
  {8f81fbc8-fbe0-4fd8-9fd5-1ef31a0af263}, !- Handle
  Building Hours of Operation,            !- Name
  {148e929c-df6a-4862-bd20-6a6efefd6ebe}, !- Hours of Operation Schedule Name
  ,                                       !- Number of People Schedule Name
  ,                                       !- People Activity Level Schedule Name
  ,                                       !- Lighting Schedule Name
  ,                                       !- Electric Equipment Schedule Name
  ,                                       !- Gas Equipment Schedule Name
  ,                                       !- Hot Water Equipment Schedule Name
  ,                                       !- Infiltration Schedule Name
  ,                                       !- Steam Equipment Schedule Name
  ;                                       !- Other Equipment Schedule Name

OS:ScheduleTypeLimits,
  {4216eadc-3c6d-48e2-bb3c-7f4d42a39f35}, !- Handle
  OnOff,                                  !- Name
  0,                                      !- Lower Limit Value {BasedOnField A4}
  1,                                      !- Upper Limit Value {BasedOnField A4}
  Discrete,                               !- Numeric Type
  Availability;                           !- Unit Type

OS:Schedule:Ruleset,
  {5afa7ccc-4d2f-4c2f-b278-252ff828809e}, !- Handle
  0800|1600|SecondarySchool|default|elec_equip, !- Name
  {8d505454-85ab-4ae4-b824-6afa848c6bb9}, !- Schedule Type Limits Name
  {e9e70e5c-3997-4759-9786-00bc889b61d0}, !- Default Day Schedule Name
  {d45890c5-62d0-41c3-a45b-ef5d0c9f4cbc}, !- Summer Design Day Schedule Name
  {bbc82225-94e2-4378-bc6a-54c6f7172d33}; !- Winter Design Day Schedule Name

OS:ScheduleTypeLimits,
  {8d505454-85ab-4ae4-b824-6afa848c6bb9}, !- Handle
  Equipment Schedule Type Limits,         !- Name
  0,                                      !- Lower Limit Value {BasedOnField A4}
  1,                                      !- Upper Limit Value {BasedOnField A4}
  Continuous,                             !- Numeric Type
  Dimensionless;                          !- Unit Type

OS:Schedule:Day,
  {e9e70e5c-3997-4759-9786-00bc889b61d0}, !- Handle
  0800|1600|SecondarySchool|default|elec_equip |default, !- Name
  {8d505454-85ab-4ae4-b824-6afa848c6bb9}, !- Schedule Type Limits Name
  ,                                       !- Interpolate to Timestep
  8,                                      !- Hour 1
  0,                                      !- Minute 1
  0.35,                                   !- Value Until Time 1
  17,                                     !- Hour 2
  0,                                      !- Minute 2
  0.95,                                   !- Value Until Time 2
  24,                                     !- Hour 3
  0,                                      !- Minute 3
  0.35;                                   !- Value Until Time 3

OS:Schedule:Day,
  {d45890c5-62d0-41c3-a45b-ef5d0c9f4cbc}, !- Handle
  0800|1600|SecondarySchool|default|elec_equip Summer Design Day, !- Name
  {8d505454-85ab-4ae4-b824-6afa848c6bb9}, !- Schedule Type Limits Name
  ,                                       !- Interpolate to Timestep
  24,                                     !- Hour 1
  0,                                      !- Minute 1
  1;                                      !- Value Until Time 1

OS:Schedule:Day,
  {bbc82225-94e2-4378-bc6a-54c6f7172d33}, !- Handle
  0800|1600|SecondarySchool|default|elec_equip Winter Design Day, !- Name
  {8d505454-85ab-4ae4-b824-6afa848c6bb9}, !- Schedule Type Limits Name
  ,                                       !- Interpolate to Timestep
  24,                                     !- Hour 1
  0,                                      !- Minute 1
  0.35;                                   !- Value Until Time 1

OS:Schedule:Rule,
  {f99d6255-8361-4c44-8864-a7928f4bdb67}, !- Handle
  0800|1600|SecondarySchool|default|elec_equip |1/1-6/30|Sat/Sun Rule, !- Name
  {5afa7ccc-4d2f-4c2f-b278-252ff828809e}, !- Schedule Ruleset Name
  0,                                      !- Rule Order
  {a5a72b66-2ea6-45a8-8fef-cd1e04cbcd9e}, !- Day Schedule Name
  Yes,                                    !- Apply Sunday
  ,                                       !- Apply Monday
  ,                                       !- Apply Tuesday
  ,                                       !- Apply Wednesday
  ,                                       !- Apply Thursday
  ,                                       !- Apply Friday
  Yes,                                    !- Apply Saturday
  ,                                       !- Apply Holiday
  DateRange,                              !- Date Specification Type
  1,                                      !- Start Month
  1,                                      !- Start Day
  6,                                      !- End Month
  30;                                     !- End Day

OS:Schedule:Day,
  {a5a72b66-2ea6-45a8-8fef-cd1e04cbcd9e}, !- Handle
  0800|1600|SecondarySchool|default|elec_equip |1/1-6/30|Sat/Sun, !- Name
  {8d505454-85ab-4ae4-b824-6afa848c6bb9}, !- Schedule Type Limits Name
  ,                                       !- Interpolate to Timestep
  24,                                     !- Hour 1
  0,                                      !- Minute 1
  0.35;                                   !- Value Until Time 1

OS:Schedule:Rule,
  {7fa6e102-3302-497d-8c39-0e42d163ea38}, !- Handle
  0800|1600|SecondarySchool|default|elec_equip |7/1-9/1|Mon/Tue/Wed/Thu/Fri/Sat/Sun Rule, !- Name
  {5afa7ccc-4d2f-4c2f-b278-252ff828809e}, !- Schedule Ruleset Name
  1,                                      !- Rule Order
  {f349462f-f440-44f9-9856-687417eb0d26}, !- Day Schedule Name
  Yes,                                    !- Apply Sunday
  Yes,                                    !- Apply Monday
  Yes,                                    !- Apply Tuesday
  Yes,                                    !- Apply Wednesday
  Yes,                                    !- Apply Thursday
  Yes,                                    !- Apply Friday
  Yes,                                    !- Apply Saturday
  ,                                       !- Apply Holiday
  DateRange,                              !- Date Specification Type
  7,                                      !- Start Month
  1,                                      !- Start Day
  9,                                      !- End Month
  1;                                      !- End Day

OS:Schedule:Day,
  {f349462f-f440-44f9-9856-687417eb0d26}, !- Handle
  0800|1600|SecondarySchool|default|elec_equip |7/1-9/1|Mon/Tue/Wed/Thu/Fri/Sat/Sun, !- Name
  {8d505454-85ab-4ae4-b824-6afa848c6bb9}, !- Schedule Type Limits Name
  ,                                       !- Interpolate to Timestep
  8,                                      !- Hour 1
  0,                                      !- Minute 1
  0.25,                                   !- Value Until Time 1
  17,                                     !- Hour 2
  0,                                      !- Minute 2
  0.5,                                    !- Value Until Time 2
  24,                                     !- Hour 3
  0,                                      !- Minute 3
  0.25;                                   !- Value Until Time 3

OS:Schedule:Rule,
  {165411ea-e23b-47aa-a0db-340e68acd09e}, !- Handle
  0800|1600|SecondarySchool|default|elec_equip |7/1-9/1|Sat/Sun Rule, !- Name
  {5afa7ccc-4d2f-4c2f-b278-252ff828809e}, !- Schedule Ruleset Name
  2,                                      !- Rule Order
  {da376d16-cbb7-41fd-96ca-fc395c663d70}, !- Day Schedule Name
  Yes,                                    !- Apply Sunday
  ,                                       !- Apply Monday
  ,                                       !- Apply Tuesday
  ,                                       !- Apply Wednesday
  ,                                       !- Apply Thursday
  ,                                       !- Apply Friday
  Yes,                                    !- Apply Saturday
  ,                                       !- Apply Holiday
  DateRange,                              !- Date Specification Type
  7,                                      !- Start Month
  1,                                      !- Start Day
  9,                                      !- End Month
  1;                                      !- End Day

OS:Schedule:Day,
  {da376d16-cbb7-41fd-96ca-fc395c663d70}, !- Handle
  0800|1600|SecondarySchool|default|elec_equip |7/1-9/1|Sat/Sun, !- Name
  {8d505454-85ab-4ae4-b824-6afa848c6bb9}, !- Schedule Type Limits Name
  ,                                       !- Interpolate to Timestep
  24,                                     !- Hour 1
  0,                                      !- Minute 1
  0.25;                                   !- Value Until Time 1

OS:Schedule:Rule,
  {bc4ffce2-88e6-44c8-b582-803c35b4f810}, !- Handle
  0800|1600|SecondarySchool|default|elec_equip |9/1-12/31|Mon/Tue/Wed/Thu/Fri/Sat/Sun Rule, !- Name
  {5afa7ccc-4d2f-4c2f-b278-252ff828809e}, !- Schedule Ruleset Name
  3,                                      !- Rule Order
  {68422a71-7df7-4ba5-94ae-c3d160846b88}, !- Day Schedule Name
  Yes,                                    !- Apply Sunday
  Yes,                                    !- Apply Monday
  Yes,                                    !- Apply Tuesday
  Yes,                                    !- Apply Wednesday
  Yes,                                    !- Apply Thursday
  Yes,                                    !- Apply Friday
  Yes,                                    !- Apply Saturday
  ,                                       !- Apply Holiday
  DateRange,                              !- Date Specification Type
  9,                                      !- Start Month
  1,                                      !- Start Day
  12,                                     !- End Month
  31;                                     !- End Day

OS:Schedule:Day,
  {68422a71-7df7-4ba5-94ae-c3d160846b88}, !- Handle
  0800|1600|SecondarySchool|default|elec_equip |9/1-12/31|Mon/Tue/Wed/Thu/Fri/Sat/Sun, !- Name
  {8d505454-85ab-4ae4-b824-6afa848c6bb9}, !- Schedule Type Limits Name
  ,                                       !- Interpolate to Timestep
  8,                                      !- Hour 1
  0,                                      !- Minute 1
  0.35,                                   !- Value Until Time 1
  17,                                     !- Hour 2
  0,                                      !- Minute 2
  0.95,                                   !- Value Until Time 2
  24,                                     !- Hour 3
  0,                                      !- Minute 3
  0.35;                                   !- Value Until Time 3

OS:Schedule:Rule,
  {8f3b541c-1bae-4879-85c8-418ea99c83b7}, !- Handle
  0800|1600|SecondarySchool|default|elec_equip |9/1-12/31|Sat/Sun Rule, !- Name
  {5afa7ccc-4d2f-4c2f-b278-252ff828809e}, !- Schedule Ruleset Name
  4,                                      !- Rule Order
  {37bfa6dc-502c-4ba4-a9f5-0862a2de0851}, !- Day Schedule Name
  Yes,                                    !- Apply Sunday
  ,                                       !- Apply Monday
  ,                                       !- Apply Tuesday
  ,                                       !- Apply Wednesday
  ,                                       !- Apply Thursday
  ,                                       !- Apply Friday
  Yes,                                    !- Apply Saturday
  ,                                       !- Apply Holiday
  DateRange,                              !- Date Specification Type
  9,                                      !- Start Month
  1,                                      !- Start Day
  12,                                     !- End Month
  31;                                     !- End Day

OS:Schedule:Day,
  {37bfa6dc-502c-4ba4-a9f5-0862a2de0851}, !- Handle
  0800|1600|SecondarySchool|default|elec_equip |9/1-12/31|Sat/Sun, !- Name
  {8d505454-85ab-4ae4-b824-6afa848c6bb9}, !- Schedule Type Limits Name
  ,                                       !- Interpolate to Timestep
  24,                                     !- Hour 1
  0,                                      !- Minute 1
  0.35;                                   !- Value Until Time 1

OS:Schedule:Ruleset,
  {043170ca-f5af-44a9-805f-9804d0093afc}, !- Handle
  0800|1600|SecondarySchool|Auditorium|occ, !- Name
  {814aaff7-9d33-46ae-9478-163c3915e8a1}, !- Schedule Type Limits Name
  {dd2ba1bc-d9fc-4f0c-8c7b-f8835515498f}, !- Default Day Schedule Name
  {960781fa-a9ee-45cd-8911-3e57d500433a}, !- Summer Design Day Schedule Name
  {53da7cb6-d681-4e16-b145-96e4b750733b}; !- Winter Design Day Schedule Name

OS:ScheduleTypeLimits,
  {814aaff7-9d33-46ae-9478-163c3915e8a1}, !- Handle
  Occupancy Schedule Type Limits,         !- Name
  0,                                      !- Lower Limit Value {BasedOnField A4}
  1,                                      !- Upper Limit Value {BasedOnField A4}
  Continuous,                             !- Numeric Type
  Dimensionless;                          !- Unit Type

OS:Schedule:Day,
  {dd2ba1bc-d9fc-4f0c-8c7b-f8835515498f}, !- Handle
  0800|1600|SecondarySchool|Auditorium|occ |default, !- Name
  {814aaff7-9d33-46ae-9478-163c3915e8a1}, !- Schedule Type Limits Name
  ,                                       !- Interpolate to Timestep