
OS:Version,
  {34671ea7-9c6f-400a-8ae0-9393c5f4f7e7}, !- Handle
  1.5.5;                                  !- Version Identifier

OS:ClimateZones,
  {135edfab-17e7-40db-a436-27d385a8cd6d}, !- Handle
  ,                                       !- Active Institution
  ,                                       !- Active Year
  ASHRAE,                                 !- Climate Zone Institution Name 1
  ANSI/ASHRAE Standard 169,               !- Climate Zone Document Name 1
  2006,                                   !- Climate Zone Document Year 1
  ,                                       !- Climate Zone Value 1
  CEC,                                    !- Climate Zone Institution Name 2
  California Climate Zone Descriptions,   !- Climate Zone Document Name 2
  1995,                                   !- Climate Zone Document Year 2
  ;                                       !- Climate Zone Value 2

OS:YearDescription,
  {513d8dda-86cb-442a-b01c-1f7f0e0ac70e}; !- Handle

OS:RadianceParameters,
  {270a96f1-3c86-4b75-a667-cdf22790e2c8}, !- Handle
  1,                                      !- Accumulated Rays per Record
  0,                                      !- Direct Threshold
  1,                                      !- Direct Certainty
  1,                                      !- Direct Jitter
  1,                                      !- Direct Pretest
  6,                                      !- Ambient Bounces VMX
  2,                                      !- Ambient Bounces DMX
  4050,                                   !- Ambient Divisions VMX
  512,                                    !- Ambient Divisions DMX
  256,                                    !- Ambient Supersamples
  0.001,                                  !- Limit Weight VMX
  0.001,                                  !- Limit Weight DMX
  500,                                    !- Klems Sampling Density
  146;                                    !- Sky Discretization Resolution

OS:SimulationControl,
  {2c487a4c-bac9-4ac5-b669-1e49d9da7c2b}, !- Handle
  ,                                       !- Do Zone Sizing Calculation
  ,                                       !- Do System Sizing Calculation
  ,                                       !- Do Plant Sizing Calculation
  No,                                     !- Run Simulation for Sizing Periods
  ,                                       !- Run Simulation for Weather File Run Periods
  0.04,                                   !- Loads Convergence Tolerance Value
  ,                                       !- Temperature Convergence Tolerance Value {deltaC}
  ,                                       !- Solar Distribution
  ,                                       !- Maximum Number of Warmup Days
  2;                                      !- Minimum Number of Warmup Days

OS:Sizing:Parameters,
  {dde5af6f-7923-4600-a28a-7556673a0266}, !- Handle
  1.25,                                   !- Heating Sizing Factor
  1.15;                                   !- Cooling Sizing Factor

OS:ProgramControl,
  {05027a99-f2b3-4aeb-afc6-1425fbb4371d}; !- Handle

OS:Timestep,
  {4ebc9f1e-4707-402e-9844-67eb1ffbd522}, !- Handle
  2;                                      !- Number of Timesteps per Hour

OS:OutputControl:ReportingTolerances,
  {65797aa2-06a9-45fe-b69d-bc6e060399d3}; !- Handle

OS:ConvergenceLimits,
  {9fc11aba-8822-4f3d-970c-46391ba4040d}; !- Handle

OS:ShadowCalculation,
  {ca758bea-4416-4626-9bba-3d8795c79bd6}, !- Handle
  7,                                      !- Calculation Frequency
  15000;                                  !- Maximum Figures in Shadow Overlap Calculations

OS:SurfaceConvectionAlgorithm:Inside,
  {aaabfc36-718a-4ab0-b622-f186ebb45230}, !- Handle
  TARP;                                   !- Algorithm

OS:SurfaceConvectionAlgorithm:Outside,
  {9a0a9f6f-4bbd-4b12-a121-9492a1fcd7d6}, !- Handle
  DOE-2;                                  !- Algorithm

OS:HeatBalanceAlgorithm,
  {9d93e563-e1e0-46d7-9e39-d1c8aceb7212}, !- Handle
  ConductionTransferFunction,             !- Algorithm
  200;                                    !- Surface Temperature Upper Limit {F}

OS:ZoneAirHeatBalanceAlgorithm,
  {8520d93e-310f-4696-9bcd-36228bfdd743}, !- Handle
  AnalyticalSolution;                     !- Algorithm

OS:ZoneAirContaminantBalance,
  {eb5fc3ae-fb22-4160-8fcb-3e3b22b000d3}; !- Handle

OS:ZoneCapacitanceMultiplier:ResearchSpecial,
  {4020ce4f-5a7a-4849-8028-8305d7b751b1}, !- Handle
  ,                                       !- Temperature Capacity Multiplier
  ,                                       !- Humidity Capacity Multiplier
  ;                                       !- Carbon Dioxide Capacity Multiplier

OS:RunPeriod,
  {28df894d-6af9-4fb8-8f56-df1753344aa3}, !- Handle
  Run Period 1,                           !- Name
  1,                                      !- Begin Month
  1,                                      !- Begin Day of Month
  12,                                     !- End Month
  31,                                     !- End Day of Month
  ,                                       !- Use Weather File Holidays and Special Days
  ,                                       !- Use Weather File Daylight Saving Period
  ,                                       !- Apply Weekend Holiday Rule
  ,                                       !- Use Weather File Rain Indicators
  ,                                       !- Use Weather File Snow Indicators
  ;                                       !- Number of Times Runperiod to be Repeated

OS:Building,
  {bf305633-c5a1-4881-9edf-ca5e1a8e1274}, !- Handle
  Building 1,                             !- Name
  ,                                       !- Building Sector Type
  ,                                       !- North Axis {deg}
  ,                                       !- Nominal Floor to Floor Height {m}
  ,                                       !- Space Type Name
  ,                                       !- Default Construction Set Name
  {9dfc5708-9130-48a4-ad3d-4a0a34b4d8d6}, !- Default Schedule Set Name
  ,                                       !- Standards Number of Stories
  ,                                       !- Standards Number of Above Ground Stories
  SecondarySchool;                        !- Standards Building Type

OS:LifeCycleCost:Parameters,
  {231cf8a0-f0e7-4251-a99f-11f0d464e661}, !- Handle
  FEMP,                                   !- Analysis Type
  ,                                       !- Discounting Convention
  ,                                       !- Inflation Approach
  ,                                       !- Real Discount Rate
  ,                                       !- Nominal Discount Rate
  ,                                       !- Inflation
  ,                                       !- Base Date Month
  ,                                       !- Base Date Year
  ,                                       !- Service Date Month
  ,                                       !- Service Date Year
  ,                                       !- Length of Study Period in Years
  ,                                       !- Tax Rate
  ,                                       !- Depreciation Method
  Yes;                                    !- Use NIST Fuel Escalation Rates

OS:Facility,
  {3ba8e45b-b833-44eb-a723-ea6c3946dc96}; !- Handle

OS:SpaceType,
  {bca37022-995e-4011-8659-b3a19d52120a}, !- Handle
  SecondarySchool|BlendEdu|DOE Ref 1980-2004|ASHRAE 169-2006-5A, !- Name
  {112aa3e9-8f95-4481-b5b3-0803b722f1d4}, !- Default Construction Set Name
  ,                                       !- Default Schedule Set Name
  {eaec0b2f-06a7-48c0-918e-1086e455b55e}, !- Group Rendering Name
  {8ab0a375-b605-4e89-8889-7e0d22fa91e7}, !- Design Specification Outdoor Air Object Name
  SecondarySchool,                        !- Standards Building Type
  BlendEdu;                               !- Standards Space Type

OS:Rendering:Color,
  {eaec0b2f-06a7-48c0-918e-1086e455b55e}, !- Handle
  Rendering Color 1,                      !- Name
  120,                                    !- Rendering Red Value
  230,                                    !- Rendering Green Value
  199;                                    !- Rendering Blue Value

OS:SpaceType,
  {96caf1c9-7cf3-49b0-94b7-746e2bafeab2}, !- Handle
  SecondarySchool|BlendOff|DOE Ref 1980-2004|ASHRAE 169-2006-5A, !- Name
  {112aa3e9-8f95-4481-b5b3-0803b722f1d4}, !- Default Construction Set Name
  ,                                       !- Default Schedule Set Name
  {19025c72-80d9-4195-8baa-eee7c7c91e06}, !- Group Rendering Name
  {12c9b3b7-7f70-451a-803d-fe8f51bd6c52}, !- Design Specification Outdoor Air Object Name
  SecondarySchool,                        !- Standards Building Type
  BlendOff;                               !- Standards Space Type

OS:Rendering:Color,
  {19025c72-80d9-4195-8baa-eee7c7c91e06}, !- Handle
  Rendering Color 2,                      !- Name
  120,                                    !- Rendering Red Value
  230,                                    !- Rendering Green Value
  199;                                    !- Rendering Blue Value

OS:SpaceType,
  {314d4564-9c46-4a10-b17d-016b1caaf699}, !- Handle
  SecondarySchool|Gym|DOE Ref 1980-2004|ASHRAE 169-2006-5A, !- Name
  {112aa3e9-8f95-4481-b5b3-0803b722f1d4}, !- Default Construction Set Name
  {b9096fc9-d37e-4bb9-bedf-c77bbb952a65}, !- Default Schedule Set Name
  {94744b17-51ad-44a7-93e3-ce5482fe8891}, !- Group Rendering Name
  {da0080e8-d004-48e4-9833-0f5a4f062410}, !- Design Specification Outdoor Air Object Name
  SecondarySchool,                        !- Standards Building Type
  Gym;                                    !- Standards Space Type

OS:Rendering:Color,
  {94744b17-51ad-44a7-93e3-ce5482fe8891}, !- Handle
  Rendering Color 3,                      !- Name
  154,                                    !- Rendering Red Value
  230,                                    !- Rendering Green Value
  120;                                    !- Rendering Blue Value

OS:SpaceType,
  {2c058cb9-a0dd-4369-9980-c867d941b125}, !- Handle
  SecondarySchool|Auditorium|DOE Ref 1980-2004|ASHRAE 169-2006-5A, !- Name
  {112aa3e9-8f95-4481-b5b3-0803b722f1d4}, !- Default Construction Set Name
  {46ffe9f9-57eb-4bfd-badf-d458e82e82f9}, !- Default Schedule Set Name
  {57a6f929-977d-46e6-be25-8578a35ea652}, !- Group Rendering Name
  {ca4c083b-002a-492b-af29-8a1f4b1e4ddd}, !- Design Specification Outdoor Air Object Name
  SecondarySchool,                        !- Standards Building Type
  Auditorium;                             !- Standards Space Type

OS:Rendering:Color,
  {57a6f929-977d-46e6-be25-8578a35ea652}, !- Handle
  Rendering Color 4,                      !- Name
  230,                                    !- Rendering Red Value
  196,                                    !- Rendering Green Value
  120;                                    !- Rendering Blue Value

OS:SpaceType,
  {db48d584-78bf-4365-9b8a-f87b35a39427}, !- Handle
  SecondarySchool|Library|DOE Ref 1980-2004|ASHRAE 169-2006-5A, !- Name
  {112aa3e9-8f95-4481-b5b3-0803b722f1d4}, !- Default Construction Set Name
  {d9e57c4a-f8ca-4d8a-a321-a0048c3d2839}, !- Default Schedule Set Name
  {457d1f61-0dd3-4129-a6af-ebef8ecf22ce}, !- Group Rendering Name
  {764815e3-b1fc-4e1e-ad03-2aa12248e76d}, !- Design Specification Outdoor Air Object Name
  SecondarySchool,                        !- Standards Building Type
  Library;                                !- Standards Space Type

OS:Rendering:Color,
  {457d1f61-0dd3-4129-a6af-ebef8ecf22ce}, !- Handle
  Rendering Color 5,                      !- Name
  230,                                    !- Rendering Red Value
  196,                                    !- Rendering Green Value
  120;                                    !- Rendering Blue Value

OS:SpaceType,
  {7cb5f064-b51c-4b33-8530-39be65e4e316}, !- Handle
  SecondarySchool|Cafeteria|DOE Ref 1980-2004|ASHRAE 169-2006-5A, !- Name
  {112aa3e9-8f95-4481-b5b3-0803b722f1d4}, !- Default Construction Set Name
  {429eb5d8-835e-47f9-9db1-a2a37c6de677}, !- Default Schedule Set Name
  {7e5c05ec-d118-48a7-9fed-b1965e6894ee}, !- Group Rendering Name
  {2a206b69-ecab-4c46-b2d5-9a32b3675280}, !- Design Specification Outdoor Air Object Name
  SecondarySchool,                        !- Standards Building Type
  Cafeteria;                              !- Standards Space Type

OS:Rendering:Color,
  {7e5c05ec-d118-48a7-9fed-b1965e6894ee}, !- Handle
  Rendering Color 6,                      !- Name
  31,                                     !- Rendering Red Value
  169,                                    !- Rendering Green Value
  34;                                     !- Rendering Blue Value

OS:SpaceType,
  {8798fcbd-f557-42dd-8b55-2b60046d98b5}, !- Handle
  SecondarySchool|Kitchen|DOE Ref 1980-2004|ASHRAE 169-2006-5A, !- Name
  {112aa3e9-8f95-4481-b5b3-0803b722f1d4}, !- Default Construction Set Name
  {27103143-9bcf-4e9c-875c-f72e25dbb1d8}, !- Default Schedule Set Name
  {555632ff-4a8f-4acf-929c-78b6bcad69e1}, !- Group Rendering Name
  {aeedf386-8e53-4b03-95cd-453103fb7a9e}, !- Design Specification Outdoor Air Object Name
  SecondarySchool,                        !- Standards Building Type
  Kitchen;                                !- Standards Space Type

OS:Rendering:Color,
  {555632ff-4a8f-4acf-929c-78b6bcad69e1}, !- Handle
  Rendering Color 7,                      !- Name
  78,                                     !- Rendering Red Value
  222,                                    !- Rendering Green Value
  133;                                    !- Rendering Blue Value

OS:Schedule:Ruleset,
  {c151c935-eaca-418a-954c-56ff22483527}, !- Handle
  0800|1600|SecondarySchool|default|hoo,  !- Name
  {c10f39d3-eca3-45c8-86b8-6191781438ce}, !- Schedule Type Limits Name
  {d0022a0b-7bac-4fd9-8f39-cd01b9003c29}, !- Default Day Schedule Name
  {18623fd9-75f0-48b8-acc9-c10b4802bf00}, !- Summer Design Day Schedule Name
  {52bf8768-ea9f-41b4-b1e4-9673a827ffde}; !- Winter Design Day Schedule Name

OS:Schedule:Day,
  {d0022a0b-7bac-4fd9-8f39-cd01b9003c29}, !- Handle
  0800|1600|SecondarySchool|default|hoo Schedule Week Day, !- Name
  {c10f39d3-eca3-45c8-86b8-6191781438ce}, !- Schedule Type Limits Name
  ,                                       !- Interpolate to Timestep
  8,                                      !- Hour 1
  0,                                      !- Minute 1
  0,                                      !- Value Until Time 1
  16,                                     !- Hour 2
  0,                                      !- Minute 2
  1,                                      !- Value Until Time 2
  24,                                     !- Hour 3
  0,                                      !- Minute 3
  0;                                      !- Value Until Time 3

OS:Schedule:Day,
  {73c463d4-eae5-4aa6-b0c5-af38e9716f39}, !- Handle
  Schedule Day 2,                         !- Name
  ,                                       !- Schedule Type Limits Name
  ,                                       !- Interpolate to Timestep
  24,                                     !- Hour 1
  0,                                      !- Minute 1
  0;                                      !- Value Until Time 1

OS:Schedule:Day,
  {52bf8768-ea9f-41b4-b1e4-9673a827ffde}, !- Handle
  0800|1600|SecondarySchool|default|hoo Winter Design Day, !- Name
  {c10f39d3-eca3-45c8-86b8-6191781438ce}, !- Schedule Type Limits Name
  ,                                       !- Interpolate to Timestep
  24,                                     !- Hour 1
  0,                                      !- Minute 1
  0;                                      !- Value Until Time 1

OS:Schedule:Day,
  {4a1d3d2b-b6f7-49b1-a33a-2cf830abef2b}, !- Handle
  Schedule Day 3,                         !- Name
  ,                                       !- Schedule Type Limits Name
  ,                                       !- Interpolate to Timestep
  24,                                     !- Hour 1
  0,                                      !- Minute 1
  0;                                      !- Value Until Time 1

OS:Schedule:Day,
  {18623fd9-75f0-48b8-acc9-c10b4802bf00}, !- Handle
  0800|1600|SecondarySchool|default|hoo Summer Design Day, !- Name
  {c10f39d3-eca3-45c8-86b8-6191781438ce}, !- Schedule Type Limits Name
  ,                                       !- Interpolate to Timestep
  24,                                     !- Hour 1
  0,                                      !- Minute 1
  1;                                      !- Value Until Time 1

OS:DefaultScheduleSet,
  {9dfc5708-9130-48a4-ad3d-4a0a34b4d8d6}, !- Handle
  Building Hours of Operation,            !- Name
  {c151c935-eaca-418a-954c-56ff22483527}, !- Hours of Operation Schedule Name
  ,                                       !- Number of People Schedule Name
  ,                                       !- People Activity Level Schedule Name
  ,                                       !- Lighting Schedule Name
  ,                                       !- Electric Equipment Schedule Name
  ,                                       !- Gas Equipment Schedule Name
  ,                                       !- Hot Water Equipment Schedule Name
  ,                                       !- Infiltration Schedule Name
  ,                                       !- Steam Equipment Schedule Name
  ;                                       !- Other Equipment Schedule Name

OS:ScheduleTypeLimits,
  {c10f39d3-eca3-45c8-86b8-6191781438ce}, !- Handle
  OnOff,                                  !- Name
  0,                                      !- Lower Limit Value {BasedOnField A4}
  1,                                      !- Upper Limit Value {BasedOnField A4}
  Discrete,                               !- Numeric Type
  Availability;                           !- Unit Type

OS:Schedule:Ruleset,
  {a298609d-565d-4024-8dce-039d6f2386b0}, !- Handle
  0800|1600|SecondarySchool|default|elec_equip, !- Name
  {4dfd7379-1326-437f-8930-dc145fb23083}, !- Schedule Type Limits Name
  {839b3649-63b8-48a2-bdfa-2f498b66b0e3}, !- Default Day Schedule Name
  {d69f42e3-3f6f-4029-a017-202119580b3c}, !- Summer Design Day Schedule Name
  {aa002bf3-a245-4ca1-a44f-fd18b62c1bb2}; !- Winter Design Day Schedule Name

OS:ScheduleTypeLimits,
  {4dfd7379-1326-437f-8930-dc145fb23083}, !- Handle
  Equipment Schedule Type Limits,         !- Name
  0,                                      !- Lower Limit Value {BasedOnField A4}
  1,                                      !- Upper Limit Value {BasedOnField A4}
  Continuous,                             !- Numeric Type
  Dimensionless;                          !- Unit Type

OS:Schedule:Day,
  {839b3649-63b8-48a2-bdfa-2f498b66b0e3}, !- Handle
  0800|1600|SecondarySchool|default|elec_equip |default, !- Name
  {4dfd7379-1326-437f-8930-dc145fb23083}, !- Schedule Type Limits Name
  ,                                       !- Interpolate to Timestep
  8,                                      !- Hour 1
  0,                                      !- Minute 1
  0.35,                                   !- Value Until Time 1
  17,                                     !- Hour 2
  0,                                      !- Minute 2
  0.95,                                   !- Value Until Time 2
  24,                                     !- Hour 3
  0,                                      !- Minute 3
  0.35;                                   !- Value Until Time 3

OS:Schedule:Day,
  {d69f42e3-3f6f-4029-a017-202119580b3c}, !- Handle
  0800|1600|SecondarySchool|default|elec_equip Summer Design Day, !- Name
  {4dfd7379-1326-437f-8930-dc145fb23083}, !- Schedule Type Limits Name
  ,                                       !- Interpolate to Timestep
  24,                                     !- Hour 1
  0,                                      !- Minute 1
  1;                                      !- Value Until Time 1

OS:Schedule:Day,
  {aa002bf3-a245-4ca1-a44f-fd18b62c1bb2}, !- Handle
  0800|1600|SecondarySchool|default|elec_equip Winter Design Day, !- Name
  {4dfd7379-1326-437f-8930-dc145fb23083}, !- Schedule Type Limits Name
  ,                                       !- Interpolate to Timestep
  24,                                     !- Hour 1
  0,                                      !- Minute 1
  0.35;                                   !- Value Until Time 1

OS:Schedule:Rule,
  {6bd1576d-1eeb-45d3-9678-eee468378926}, !- Handle
  0800|1600|SecondarySchool|default|elec_equip |1/1-6/30|Sat/Sun Rule, !- Name
  {a298609d-565d-4024-8dce-039d6f2386b0}, !- Schedule Ruleset Name
  0,                                      !- Rule Order
  {5d2affdf-2406-4c36-890d-94539548645b}, !- Day Schedule Name
  Yes,                                    !- Apply Sunday
  ,                                       !- Apply Monday
  ,                                       !- Apply Tuesday
  ,                                       !- Apply Wednesday
  ,                                       !- Apply Thursday
  ,                                       !- Apply Friday
  Yes,                                    !- Apply Saturday
  ,                                       !- Apply Holiday
  DateRange,                              !- Date Specification Type
  1,                                      !- Start Month
  1,                                      !- Start Day
  6,                                      !- End Month
  30;                                     !- End Day

OS:Schedule:Day,
  {5d2affdf-2406-4c36-890d-94539548645b}, !- Handle
  0800|1600|SecondarySchool|default|elec_equip |1/1-6/30|Sat/Sun, !- Name
  {4dfd7379-1326-437f-8930-dc145fb23083}, !- Schedule Type Limits Name
  ,                                       !- Interpolate to Timestep
  24,                                     !- Hour 1
  0,                                      !- Minute 1
  0.35;                                   !- Value Until Time 1

OS:Schedule:Rule,
  {ea6100f2-15cd-4a42-a127-17b5aaeae24a}, !- Handle
  0800|1600|SecondarySchool|default|elec_equip |7/1-9/1|Mon/Tue/Wed/Thu/Fri/Sat/Sun Rule, !- Name
  {a298609d-565d-4024-8dce-039d6f2386b0}, !- Schedule Ruleset Name
  1,                                      !- Rule Order
  {767df59e-a5aa-4873-97ba-00384646012f}, !- Day Schedule Name
  Yes,                                    !- Apply Sunday
  Yes,                                    !- Apply Monday
  Yes,                                    !- Apply Tuesday
  Yes,                                    !- Apply Wednesday
  Yes,                                    !- Apply Thursday
  Yes,                                    !- Apply Friday
  Yes,                                    !- Apply Saturday
  ,                                       !- Apply Holiday
  DateRange,                              !- Date Specification Type
  7,                                      !- Start Month
  1,                                      !- Start Day
  9,                                      !- End Month
  1;                                      !- End Day

OS:Schedule:Day,
  {767df59e-a5aa-4873-97ba-00384646012f}, !- Handle
  0800|1600|SecondarySchool|default|elec_equip |7/1-9/1|Mon/Tue/Wed/Thu/Fri/Sat/Sun, !- Name
  {4dfd7379-1326-437f-8930-dc145fb23083}, !- Schedule Type Limits Name
  ,                                       !- Interpolate to Timestep
  8,                                      !- Hour 1
  0,                                      !- Minute 1
  0.25,                                   !- Value Until Time 1
  17,                                     !- Hour 2
  0,                                      !- Minute 2
  0.5,                                    !- Value Until Time 2
  24,                                     !- Hour 3
  0,                                      !- Minute 3
  0.25;                                   !- Value Until Time 3

OS:Schedule:Rule,
  {8444dc8b-e8af-441b-bbc9-efc394616048}, !- Handle
  0800|1600|SecondarySchool|default|elec_equip |7/1-9/1|Sat/Sun Rule, !- Name
  {a298609d-565d-4024-8dce-039d6f2386b0}, !- Schedule Ruleset Name
  2,                                      !- Rule Order
  {ccab51fd-4138-42db-b1a8-23d9f5084145}, !- Day Schedule Name
  Yes,                                    !- Apply Sunday
  ,                                       !- Apply Monday
  ,                                       !- Apply Tuesday
  ,                                       !- Apply Wednesday
  ,                                       !- Apply Thursday
  ,                                       !- Apply Friday
  Yes,                                    !- Apply Saturday
  ,                                       !- Apply Holiday
  DateRange,                              !- Date Specification Type
  7,                                      !- Start Month
  1,                                      !- Start Day
  9,                                      !- End Month
  1;                                      !- End Day

OS:Schedule:Day,
  {ccab51fd-4138-42db-b1a8-23d9f5084145}, !- Handle
  0800|1600|SecondarySchool|default|elec_equip |7/1-9/1|Sat/Sun, !- Name
  {4dfd7379-1326-437f-8930-dc145fb23083}, !- Schedule Type Limits Name
  ,                                       !- Interpolate to Timestep
  24,                                     !- Hour 1
  0,                                      !- Minute 1
  0.25;                                   !- Value Until Time 1

OS:Schedule:Rule,
  {a93433f6-9400-492b-a73c-c367f279af8d}, !- Handle
  0800|1600|SecondarySchool|default|elec_equip |9/1-12/31|Mon/Tue/Wed/Thu/Fri/Sat/Sun Rule, !- Name
  {a298609d-565d-4024-8dce-039d6f2386b0}, !- Schedule Ruleset Name
  3,                                      !- Rule Order
  {8ec11a81-82db-48eb-83b0-b955b5922edb}, !- Day Schedule Name
  Yes,                                    !- Apply Sunday
  Yes,                                    !- Apply Monday
  Yes,                                    !- Apply Tuesday
  Yes,                                    !- Apply Wednesday
  Yes,                                    !- Apply Thursday
  Yes,                                    !- Apply Friday
  Yes,                                    !- Apply Saturday
  ,                                       !- Apply Holiday
  DateRange,                              !- Date Specification Type
  9,                                      !- Start Month
  1,                                      !- Start Day
  12,                                     !- End Month
  31;                                     !- End Day

OS:Schedule:Day,
  {8ec11a81-82db-48eb-83b0-b955b5922edb}, !- Handle
  0800|1600|SecondarySchool|default|elec_equip |9/1-12/31|Mon/Tue/Wed/Thu/Fri/Sat/Sun, !- Name
  {4dfd7379-1326-437f-8930-dc145fb23083}, !- Schedule Type Limits Name
  ,                                       !- Interpolate to Timestep
  8,                                      !- Hour 1
  0,                                      !- Minute 1
  0.35,                                   !- Value Until Time 1
  17,                                     !- Hour 2
  0,                                      !- Minute 2
  0.95,                                   !- Value Until Time 2
  24,                                     !- Hour 3
  0,                                      !- Minute 3
  0.35;                                   !- Value Until Time 3

OS:Schedule:Rule,
  {2d0b43d4-d4f3-40f0-9ca5-1a78872b9f29}, !- Handle
  0800|1600|SecondarySchool|default|elec_equip |9/1-12/31|Sat/Sun Rule, !- Name
  {a298609d-565d-4024-8dce-039d6f2386b0}, !- Schedule Ruleset Name
  4,                                      !- Rule Order
  {6c4a5843-fcb6-46bc-b3b7-f42d00828f4e}, !- Day Schedule Name
  Yes,                                    !- Apply Sunday
  ,                                       !- Apply Monday
  ,                                       !- Apply Tuesday
  ,                                       !- Apply Wednesday
  ,                                       !- Apply Thursday
  ,                                       !- Apply Friday
  Yes,                                    !- Apply Saturday
  ,                                       !- Apply Holiday
  DateRange,                              !- Date Specification Type
  9,                                      !- Start Month
  1,                                      !- Start Day
  12,                                     !- End Month
  31;                                     !- End Day

OS:Schedule:Day,
  {6c4a5843-fcb6-46bc-b3b7-f42d00828f4e}, !- Handle
  0800|1600|SecondarySchool|default|elec_equip |9/1-12/31|Sat/Sun, !- Name
  {4dfd7379-1326-437f-8930-dc145fb23083}, !- Schedule Type Limits Name
  ,                                       !- Interpolate to Timestep
  24,                                     !- Hour 1
  0,                                      !- Minute 1
  0.35;                                   !- Value Until Time 1

OS:Schedule:Ruleset,
  {358824d4-76cd-44f0-ac5f-fad19518f132}, !- Handle
  0800|1600|SecondarySchool|Auditorium|occ, !- Name
  {477c0aad-3b74-4a40-9b50-335c3718a037}, !- Schedule Type Limits Name
  {4a4537e2-63a4-4f79-b41a-1a9f2b260720}, !- Default Day Schedule Name
  {a5ef9c7d-0640-44bc-95e2-a7b88ad17f0e}, !- Summer Design Day Schedule Name
  {936b5ce9-b087-46a1-a0b1-20ae4bf0519d}; !- Winter Design Day Schedule Name

OS:ScheduleTypeLimits,
  {477c0aad-3b74-4a40-9b50-335c3718a037}, !- Handle
  Occupancy Schedule Type Limits,         !- Name
  0,                                      !- Lower Limit Value {BasedOnField A4}
  1,                                      !- Upper Limit Value {BasedOnField A4}
  Continuous,                             !- Numeric Type
  Dimensionless;                          !- Unit Type

OS:Schedule:Day,
  {4a4537e2-63a4-4f79-b41a-1a9f2b260720}, !- Handle
  0800|1600|SecondarySchool|Auditorium|occ |default, !- Name
  {477c0aad-3b74-4a40-9b50-335c3718a037}, !- Schedule Type Limits Name
  ,                                       !- Interpolate to Timestep