
OS:Version,
  {9cfc40a9-5bf8-47ef-b352-264c52ab686e}, !- Handle
  1.6.0;                                  !- Version Identifier

OS:ClimateZones,
  {135edfab-17e7-40db-a436-27d385a8cd6d}, !- Handle
  ,                                       !- Active Institution
  ,                                       !- Active Year
  ASHRAE,                                 !- Climate Zone Institution Name 1
  ANSI/ASHRAE Standard 169,               !- Climate Zone Document Name 1
  2006,                                   !- Climate Zone Document Year 1
  ,                                       !- Climate Zone Value 1
  CEC,                                    !- Climate Zone Institution Name 2
  California Climate Zone Descriptions,   !- Climate Zone Document Name 2
  1995,                                   !- Climate Zone Document Year 2
  ;                                       !- Climate Zone Value 2

OS:YearDescription,
  {513d8dda-86cb-442a-b01c-1f7f0e0ac70e}; !- Handle

OS:RadianceParameters,
  {270a96f1-3c86-4b75-a667-cdf22790e2c8}, !- Handle
  1,                                      !- Accumulated Rays per Record
  0,                                      !- Direct Threshold
  1,                                      !- Direct Certainty
  1,                                      !- Direct Jitter
  1,                                      !- Direct Pretest
  6,                                      !- Ambient Bounces VMX
  2,                                      !- Ambient Bounces DMX
  4050,                                   !- Ambient Divisions VMX
  512,                                    !- Ambient Divisions DMX
  256,                                    !- Ambient Supersamples
  0.001,                                  !- Limit Weight VMX
  0.001,                                  !- Limit Weight DMX
  500,                                    !- Klems Sampling Density
  146;                                    !- Sky Discretization Resolution

OS:SimulationControl,
  {2c487a4c-bac9-4ac5-b669-1e49d9da7c2b}, !- Handle
  ,                                       !- Do Zone Sizing Calculation
  ,                                       !- Do System Sizing Calculation
  ,                                       !- Do Plant Sizing Calculation
  No,                                     !- Run Simulation for Sizing Periods
  ,                                       !- Run Simulation for Weather File Run Periods
  0.04,                                   !- Loads Convergence Tolerance Value
  ,                                       !- Temperature Convergence Tolerance Value {deltaC}
  ,                                       !- Solar Distribution
  ,                                       !- Maximum Number of Warmup Days
  2;                                      !- Minimum Number of Warmup Days

OS:Sizing:Parameters,
  {dde5af6f-7923-4600-a28a-7556673a0266}, !- Handle
  1.25,                                   !- Heating Sizing Factor
  1.15;                                   !- Cooling Sizing Factor

OS:ProgramControl,
  {05027a99-f2b3-4aeb-afc6-1425fbb4371d}; !- Handle

OS:Timestep,
  {4ebc9f1e-4707-402e-9844-67eb1ffbd522}, !- Handle
  2;                                      !- Number of Timesteps per Hour

OS:OutputControl:ReportingTolerances,
  {65797aa2-06a9-45fe-b69d-bc6e060399d3}; !- Handle

OS:ConvergenceLimits,
  {9fc11aba-8822-4f3d-970c-46391ba4040d}; !- Handle

OS:ShadowCalculation,
  {ca758bea-4416-4626-9bba-3d8795c79bd6}, !- Handle
  7,                                      !- Calculation Frequency
  15000;                                  !- Maximum Figures in Shadow Overlap Calculations

OS:SurfaceConvectionAlgorithm:Inside,
  {aaabfc36-718a-4ab0-b622-f186ebb45230}, !- Handle
  TARP;                                   !- Algorithm

OS:SurfaceConvectionAlgorithm:Outside,
  {9a0a9f6f-4bbd-4b12-a121-9492a1fcd7d6}, !- Handle
  DOE-2;                                  !- Algorithm

OS:HeatBalanceAlgorithm,
  {9d93e563-e1e0-46d7-9e39-d1c8aceb7212}, !- Handle
  ConductionTransferFunction,             !- Algorithm
  200;                                    !- Surface Temperature Upper Limit {F}

OS:ZoneAirHeatBalanceAlgorithm,
  {8520d93e-310f-4696-9bcd-36228bfdd743}, !- Handle
  AnalyticalSolution;                     !- Algorithm

OS:ZoneAirContaminantBalance,
  {eb5fc3ae-fb22-4160-8fcb-3e3b22b000d3}; !- Handle

OS:ZoneCapacitanceMultiplier:ResearchSpecial,
  {4020ce4f-5a7a-4849-8028-8305d7b751b1}, !- Handle
  ,                                       !- Temperature Capacity Multiplier
  ,                                       !- Humidity Capacity Multiplier
  ;                                       !- Carbon Dioxide Capacity Multiplier

OS:RunPeriod,
  {28df894d-6af9-4fb8-8f56-df1753344aa3}, !- Handle
  Run Period 1,                           !- Name
  1,                                      !- Begin Month
  1,                                      !- Begin Day of Month
  12,                                     !- End Month
  31,                                     !- End Day of Month
  ,                                       !- Use Weather File Holidays and Special Days
  ,                                       !- Use Weather File Daylight Saving Period
  ,                                       !- Apply Weekend Holiday Rule
  ,                                       !- Use Weather File Rain Indicators
  ,                                       !- Use Weather File Snow Indicators
  ;                                       !- Number of Times Runperiod to be Repeated

OS:Building,
  {bf305633-c5a1-4881-9edf-ca5e1a8e1274}, !- Handle
  Building 1,                             !- Name
  ,                                       !- Building Sector Type
  ,                                       !- North Axis {deg}
  ,                                       !- Nominal Floor to Floor Height {m}
  ,                                       !- Space Type Name
  ,                                       !- Default Construction Set Name
  {12987bc7-aea6-43fb-aefa-b54df3e61ea6}, !- Default Schedule Set Name
  ,                                       !- Standards Number of Stories
  ,                                       !- Standards Number of Above Ground Stories
  SecondarySchool;                        !- Standards Building Type

OS:LifeCycleCost:Parameters,
  {231cf8a0-f0e7-4251-a99f-11f0d464e661}, !- Handle
  FEMP,                                   !- Analysis Type
  ,                                       !- Discounting Convention
  ,                                       !- Inflation Approach
  ,                                       !- Real Discount Rate
  ,                                       !- Nominal Discount Rate
  ,                                       !- Inflation
  ,                                       !- Base Date Month
  ,                                       !- Base Date Year
  ,                                       !- Service Date Month
  ,                                       !- Service Date Year
  ,                                       !- Length of Study Period in Years
  ,                                       !- Tax Rate
  ,                                       !- Depreciation Method
  Yes;                                    !- Use NIST Fuel Escalation Rates

OS:Facility,
  {3ba8e45b-b833-44eb-a723-ea6c3946dc96}; !- Handle

OS:SpaceType,
  {cfcbcefc-5e07-4ba0-9f51-dd74f574b213}, !- Handle
  SecondarySchool|BlendEdu|DOE Ref Pre-1980|ASHRAE 169-2006-5A, !- Name
  {aa28a186-3c79-4bfe-8eb5-ce786f8dc39b}, !- Default Construction Set Name
  ,                                       !- Default Schedule Set Name
  {6f214d27-8d71-4b75-8e6b-90ce1c2dc907}, !- Group Rendering Name
  {c425e72b-659a-4780-838e-15866cbf264a}, !- Design Specification Outdoor Air Object Name
  SecondarySchool,                        !- Standards Building Type
  BlendEdu;                               !- Standards Space Type

OS:Rendering:Color,
  {6f214d27-8d71-4b75-8e6b-90ce1c2dc907}, !- Handle
  Rendering Color 1,                      !- Name
  120,                                    !- Rendering Red Value
  230,                                    !- Rendering Green Value
  199;                                    !- Rendering Blue Value

OS:SpaceType,
  {561cb375-01ec-45b5-9d59-ed09756a11f3}, !- Handle
  SecondarySchool|BlendOff|DOE Ref Pre-1980|ASHRAE 169-2006-5A, !- Name
  {aa28a186-3c79-4bfe-8eb5-ce786f8dc39b}, !- Default Construction Set Name
  ,                                       !- Default Schedule Set Name
  {8c0cbed1-cbf9-43bc-b2e1-d801cffef7b7}, !- Group Rendering Name
  {6cc02a47-c671-4412-bd1d-5ef613a8512e}, !- Design Specification Outdoor Air Object Name
  SecondarySchool,                        !- Standards Building Type
  BlendOff;                               !- Standards Space Type

OS:Rendering:Color,
  {8c0cbed1-cbf9-43bc-b2e1-d801cffef7b7}, !- Handle
  Rendering Color 2,                      !- Name
  120,                                    !- Rendering Red Value
  230,                                    !- Rendering Green Value
  199;                                    !- Rendering Blue Value

OS:SpaceType,
  {47fa8bce-54a1-48ac-ba4a-c5058c896494}, !- Handle
  SecondarySchool|Gym|DOE Ref Pre-1980|ASHRAE 169-2006-5A, !- Name
  {aa28a186-3c79-4bfe-8eb5-ce786f8dc39b}, !- Default Construction Set Name
  {4ea93e4b-4722-49ee-b123-267da063985a}, !- Default Schedule Set Name
  {730caf75-fb6d-406d-bf4c-4fc5330a620a}, !- Group Rendering Name
  {e37bd330-ce67-42bf-b36a-8fa47b969dbb}, !- Design Specification Outdoor Air Object Name
  SecondarySchool,                        !- Standards Building Type
  Gym;                                    !- Standards Space Type

OS:Rendering:Color,
  {730caf75-fb6d-406d-bf4c-4fc5330a620a}, !- Handle
  Rendering Color 3,                      !- Name
  154,                                    !- Rendering Red Value
  230,                                    !- Rendering Green Value
  120;                                    !- Rendering Blue Value

OS:SpaceType,
  {8cf51fe2-3191-484f-8150-a9132ee925ff}, !- Handle
  SecondarySchool|Auditorium|DOE Ref Pre-1980|ASHRAE 169-2006-5A, !- Name
  {aa28a186-3c79-4bfe-8eb5-ce786f8dc39b}, !- Default Construction Set Name
  {1b4e9fac-3a8e-4f0b-8741-9fd1ee501b9c}, !- Default Schedule Set Name
  {b86a5cea-625b-490a-ab4e-7479b40cd3ad}, !- Group Rendering Name
  {2ddfc6fb-756e-45e6-8c2a-8b87d585a99c}, !- Design Specification Outdoor Air Object Name
  SecondarySchool,                        !- Standards Building Type
  Auditorium;                             !- Standards Space Type

OS:Rendering:Color,
  {b86a5cea-625b-490a-ab4e-7479b40cd3ad}, !- Handle
  Rendering Color 4,                      !- Name
  230,                                    !- Rendering Red Value
  196,                                    !- Rendering Green Value
  120;                                    !- Rendering Blue Value

OS:SpaceType,
  {c3a173cf-1561-4d6b-afea-0c6d55f6e867}, !- Handle
  SecondarySchool|Library|DOE Ref Pre-1980|ASHRAE 169-2006-5A, !- Name
  {aa28a186-3c79-4bfe-8eb5-ce786f8dc39b}, !- Default Construction Set Name
  {c373324b-e0ae-4f9a-8e98-e1102a927e6f}, !- Default Schedule Set Name
  {c4e834d1-5d86-48e5-bc32-85e2af7aa825}, !- Group Rendering Name
  {ae63bef2-81c6-4080-9f6c-9813edd9221d}, !- Design Specification Outdoor Air Object Name
  SecondarySchool,                        !- Standards Building Type
  Library;                                !- Standards Space Type

OS:Rendering:Color,
  {c4e834d1-5d86-48e5-bc32-85e2af7aa825}, !- Handle
  Rendering Color 5,                      !- Name
  230,                                    !- Rendering Red Value
  196,                                    !- Rendering Green Value
  120;                                    !- Rendering Blue Value

OS:SpaceType,
  {4c0251f5-0224-4340-ab61-03e2a7fcf94c}, !- Handle
  SecondarySchool|Cafeteria|DOE Ref Pre-1980|ASHRAE 169-2006-5A, !- Name
  {aa28a186-3c79-4bfe-8eb5-ce786f8dc39b}, !- Default Construction Set Name
  {d46909fb-b14f-4668-99d2-ddd6c51c00dd}, !- Default Schedule Set Name
  {94717f0d-764f-4674-a6be-c257e3d5c360}, !- Group Rendering Name
  {d197c577-ffd7-41a5-a0b6-fea4cc3146d2}, !- Design Specification Outdoor Air Object Name
  SecondarySchool,                        !- Standards Building Type
  Cafeteria;                              !- Standards Space Type

OS:Rendering:Color,
  {94717f0d-764f-4674-a6be-c257e3d5c360}, !- Handle
  Rendering Color 6,                      !- Name
  31,                                     !- Rendering Red Value
  169,                                    !- Rendering Green Value
  34;                                     !- Rendering Blue Value

OS:SpaceType,
  {cb7a219b-f959-42ff-804a-107b5716f9d4}, !- Handle
  SecondarySchool|Kitchen|DOE Ref Pre-1980|ASHRAE 169-2006-5A, !- Name
  {aa28a186-3c79-4bfe-8eb5-ce786f8dc39b}, !- Default Construction Set Name
  {ae14a051-2efc-4348-8777-260715f35725}, !- Default Schedule Set Name
  {b2c3362a-b29e-450c-aad8-09a3a133c934}, !- Group Rendering Name
  {e1fa4fd6-0f78-4409-a444-b013976677d2}, !- Design Specification Outdoor Air Object Name
  SecondarySchool,                        !- Standards Building Type
  Kitchen;                                !- Standards Space Type

OS:Rendering:Color,
  {b2c3362a-b29e-450c-aad8-09a3a133c934}, !- Handle
  Rendering Color 7,                      !- Name
  78,                                     !- Rendering Red Value
  222,                                    !- Rendering Green Value
  133;                                    !- Rendering Blue Value

OS:Schedule:Ruleset,
  {cec2e266-5b89-4041-9f0d-462fb3f10c04}, !- Handle
  0800|1600|SecondarySchool|default|hoo,  !- Name
  {35d6760f-dfed-4098-9e94-6b96815bfc2a}, !- Schedule Type Limits Name
  {7fd42346-abcd-4dd0-a11e-58b328429851}, !- Default Day Schedule Name
  {2fd2f6f8-d027-402f-97a0-c582be4e9615}, !- Summer Design Day Schedule Name
  {17280b54-1c6e-448a-b3ce-e271888c22ae}; !- Winter Design Day Schedule Name

OS:Schedule:Day,
  {7fd42346-abcd-4dd0-a11e-58b328429851}, !- Handle
  0800|1600|SecondarySchool|default|hoo Schedule Week Day, !- Name
  {35d6760f-dfed-4098-9e94-6b96815bfc2a}, !- Schedule Type Limits Name
  ,                                       !- Interpolate to Timestep
  8,                                      !- Hour 1
  0,                                      !- Minute 1
  0,                                      !- Value Until Time 1
  16,                                     !- Hour 2
  0,                                      !- Minute 2
  1,                                      !- Value Until Time 2
  24,                                     !- Hour 3
  0,                                      !- Minute 3
  0;                                      !- Value Until Time 3

OS:Schedule:Day,
  {04d52598-8118-4cf0-8cd4-48690ad69c61}, !- Handle
  Schedule Day 2,                         !- Name
  ,                                       !- Schedule Type Limits Name
  ,                                       !- Interpolate to Timestep
  24,                                     !- Hour 1
  0,                                      !- Minute 1
  0;                                      !- Value Until Time 1

OS:Schedule:Day,
  {17280b54-1c6e-448a-b3ce-e271888c22ae}, !- Handle
  0800|1600|SecondarySchool|default|hoo Winter Design Day, !- Name
  {35d6760f-dfed-4098-9e94-6b96815bfc2a}, !- Schedule Type Limits Name
  ,                                       !- Interpolate to Timestep
  24,                                     !- Hour 1
  0,                                      !- Minute 1
  0;                                      !- Value Until Time 1

OS:Schedule:Day,
  {a6fd7e9d-54c6-4869-a147-c0b982212256}, !- Handle
  Schedule Day 3,                         !- Name
  ,                                       !- Schedule Type Limits Name
  ,                                       !- Interpolate to Timestep
  24,                                     !- Hour 1
  0,                                      !- Minute 1
  0;                                      !- Value Until Time 1

OS:Schedule:Day,
  {2fd2f6f8-d027-402f-97a0-c582be4e9615}, !- Handle
  0800|1600|SecondarySchool|default|hoo Summer Design Day, !- Name
  {35d6760f-dfed-4098-9e94-6b96815bfc2a}, !- Schedule Type Limits Name
  ,                                       !- Interpolate to Timestep
  24,                                     !- Hour 1
  0,                                      !- Minute 1
  1;                                      !- Value Until Time 1

OS:DefaultScheduleSet,
  {12987bc7-aea6-43fb-aefa-b54df3e61ea6}, !- Handle
  Building Hours of Operation,            !- Name
  {cec2e266-5b89-4041-9f0d-462fb3f10c04}, !- Hours of Operation Schedule Name
  ,                                       !- Number of People Schedule Name
  ,                                       !- People Activity Level Schedule Name
  ,                                       !- Lighting Schedule Name
  ,                                       !- Electric Equipment Schedule Name
  ,                                       !- Gas Equipment Schedule Name
  ,                                       !- Hot Water Equipment Schedule Name
  ,                                       !- Infiltration Schedule Name
  ,                                       !- Steam Equipment Schedule Name
  ;                                       !- Other Equipment Schedule Name

OS:ScheduleTypeLimits,
  {35d6760f-dfed-4098-9e94-6b96815bfc2a}, !- Handle
  OnOff,                                  !- Name
  0,                                      !- Lower Limit Value {BasedOnField A4}
  1,                                      !- Upper Limit Value {BasedOnField A4}
  Discrete,                               !- Numeric Type
  Availability;                           !- Unit Type

OS:Schedule:Ruleset,
  {1705fe4b-cccc-4044-b8a6-abaf7e5b66a3}, !- Handle
  0800|1600|SecondarySchool|Cafeteria|occ, !- Name
  {6a8bfd38-8cd1-4a9c-905a-ee74a31a24b7}, !- Schedule Type Limits Name
  {74aa4301-02de-4b3e-91c3-445ad611d986}, !- Default Day Schedule Name
  {7b33a302-e3e3-4285-a1b1-39aad69e4020}, !- Summer Design Day Schedule Name
  {c344b4e4-b2fd-4b34-8f75-0aa6b54b891c}; !- Winter Design Day Schedule Name

OS:ScheduleTypeLimits,
  {6a8bfd38-8cd1-4a9c-905a-ee74a31a24b7}, !- Handle
  Occupancy Schedule Type Limits,         !- Name
  0,                                      !- Lower Limit Value {BasedOnField A4}
  1,                                      !- Upper Limit Value {BasedOnField A4}
  Continuous,                             !- Numeric Type
  Dimensionless;                          !- Unit Type

OS:Schedule:Day,
  {74aa4301-02de-4b3e-91c3-445ad611d986}, !- Handle
  0800|1600|SecondarySchool|Cafeteria|occ |default, !- Name
  {6a8bfd38-8cd1-4a9c-905a-ee74a31a24b7}, !- Schedule Type Limits Name
  ,                                       !- Interpolate to Timestep
  7,                                      !- Hour 1
  0,                                      !- Minute 1
  0,                                      !- Value Until Time 1
  9,                                      !- Hour 2
  0,                                      !- Minute 2
  0.15,                                   !- Value Until Time 2
  11,                                     !- Hour 3
  0,                                      !- Minute 3
  0.05,                                   !- Value Until Time 3
  13,                                     !- Hour 4
  0,                                      !- Minute 4
  0.95,                                   !- Value Until Time 4
  15,                                     !- Hour 5
  0,                                      !- Minute 5
  0.15,                                   !- Value Until Time 5
  24,                                     !- Hour 6
  0,                                      !- Minute 6
  0;                                      !- Value Until Time 6

OS:Schedule:Day,
  {7b33a302-e3e3-4285-a1b1-39aad69e4020}, !- Handle
  0800|1600|SecondarySchool|Cafeteria|occ Summer Design Day, !- Name
  {6a8bfd38-8cd1-4a9c-905a-ee74a31a24b7}, !- Schedule Type Limits Name
  ,                                       !- Interpolate to Timestep
  7,                                      !- Hour 1
  0,                                      !- Minute 1
  0,                                      !- Value Until Time 1
  9,                                      !- Hour 2
  0,                                      !- Minute 2
  0.15,                                   !- Value Until Time 2
  11,                                     !- Hour 3
  0,                                      !- Minute 3
  0.05,                                   !- Value Until Time 3
  13,                                     !- Hour 4
  0,                                      !- Minute 4
  1,                                      !- Value Until Time 4
  15,                                     !- Hour 5
  0,                                      !- Minute 5
  0.15,                                   !- Value Until Time 5
  24,                                     !- Hour 6
  0,                                      !- Minute 6
  0;                                      !- Value Until Time 6

OS:Schedule:Day,
  {c344b4e4-b2fd-4b34-8f75-0aa6b54b891c}, !- Handle
  0800|1600|SecondarySchool|Cafeteria|occ Winter Design Day, !- Name
  {6a8bfd38-8cd1-4a9c-905a-ee74a31a24b7}, !- Schedule Type Limits Name
  ,                                       !- Interpolate to Timestep
  24,                                     !- Hour 1
  0,                                      !- Minute 1
  0;                                      !- Value Until Time 1

OS:Schedule:Rule,
  {2e486360-1854-4544-93fa-12335ea64a22}, !- Handle
  0800|1600|SecondarySchool|Cafeteria|occ |1/1-6/30|Sat/Sun Rule, !- Name
  {1705fe4b-cccc-4044-b8a6-abaf7e5b66a3}, !- Schedule Ruleset Name
  0,                                      !- Rule Order
  {0871929e-d39f-4726-a3be-4edb82eb4f25}, !- Day Schedule Name
  Yes,                                    !- Apply Sunday
  ,                                       !- Apply Monday
  ,                                       !- Apply Tuesday
  ,                                       !- Apply Wednesday
  ,                                       !- Apply Thursday
  ,                                       !- Apply Friday
  Yes,                                    !- Apply Saturday
  ,                                       !- Apply Holiday
  DateRange,                              !- Date Specification Type
  1,                                      !- Start Month
  1,                                      !- Start Day
  6,                                      !- End Month
  30;                                     !- End Day

OS:Schedule:Day,
  {0871929e-d39f-4726-a3be-4edb82eb4f25}, !- Handle
  0800|1600|SecondarySchool|Cafeteria|occ |1/1-6/30|Sat/Sun, !- Name
  {6a8bfd38-8cd1-4a9c-905a-ee74a31a24b7}, !- Schedule Type Limits Name
  ,                                       !- Interpolate to Timestep
  24,                                     !- Hour 1
  0,                                      !- Minute 1
  0;                                      !- Value Until Time 1

OS:Schedule:Rule,
  {698181a9-1a55-4f05-88de-104c8f955fe6}, !- Handle
  0800|1600|SecondarySchool|Cafeteria|occ |7/1-9/1|Mon/Tue/Wed/Thu/Fri/Sat/Sun Rule, !- Name
  {1705fe4b-cccc-4044-b8a6-abaf7e5b66a3}, !- Schedule Ruleset Name
  1,                                      !- Rule Order
  {d5dfb9ee-fc92-47d5-85f0-804f6983b285}, !- Day Schedule Name
  Yes,                                    !- Apply Sunday
  Yes,                                    !- Apply Monday
  Yes,                                    !- Apply Tuesday
  Yes,                                    !- Apply Wednesday
  Yes,                                    !- Apply Thursday
  Yes,                                    !- Apply Friday
  Yes,                                    !- Apply Saturday
  ,                                       !- Apply Holiday
  DateRange,                              !- Date Specification Type
  7,                                      !- Start Month
  1,                                      !- Start Day
  9,                                      !- End Month
  1;                                      !- End Day

OS:Schedule:Day,
  {d5dfb9ee-fc92-47d5-85f0-804f6983b285}, !- Handle
  0800|1600|SecondarySchool|Cafeteria|occ |7/1-9/1|Mon/Tue/Wed/Thu/Fri/Sat/Sun, !- Name
  {6a8bfd38-8cd1-4a9c-905a-ee74a31a24b7}, !- Schedule Type Limits Name
  ,                                       !- Interpolate to Timestep
  9,                                      !- Hour 1
  0,                                      !- Minute 1
  0,                                      !- Value Until Time 1
  15,                                     !- Hour 2
  0,                                      !- Minute 2
  0.25,                                   !- Value Until Time 2
  24,                                     !- Hour 3
  0,                                      !- Minute 3
  0;                                      !- Value Until Time 3

OS:Schedule:Rule,
  {5eb1e736-3349-4b16-be39-8df52468c3d6}, !- Handle
  0800|1600|SecondarySchool|Cafeteria|occ |7/1-9/1|Sat/Sun Rule, !- Name
  {1705fe4b-cccc-4044-b8a6-abaf7e5b66a3}, !- Schedule Ruleset Name
  2,                                      !- Rule Order
  {2bffad05-ccaf-460a-ac43-7ae6008b1a2c}, !- Day Schedule Name
  Yes,                                    !- Apply Sunday
  ,                                       !- Apply Monday
  ,                                       !- Apply Tuesday
  ,                                       !- Apply Wednesday
  ,                                       !- Apply Thursday
  ,                                       !- Apply Friday
  Yes,                                    !- Apply Saturday
  ,                                       !- Apply Holiday
  DateRange,                              !- Date Specification Type
  7,                                      !- Start Month
  1,                                      !- Start Day
  9,                                      !- End Month
  1;                                      !- End Day

OS:Schedule:Day,
  {2bffad05-ccaf-460a-ac43-7ae6008b1a2c}, !- Handle
  0800|1600|SecondarySchool|Cafeteria|occ |7/1-9/1|Sat/Sun, !- Name
  {6a8bfd38-8cd1-4a9c-905a-ee74a31a24b7}, !- Schedule Type Limits Name
  ,                                       !- Interpolate to Timestep
  24,                                     !- Hour 1
  0,                                      !- Minute 1
  0;                                      !- Value Until Time 1

OS:Schedule:Rule,
  {a56d597d-a1de-43b3-acaf-294efea1c164}, !- Handle
  0800|1600|SecondarySchool|Cafeteria|occ |9/1-12/31|Mon/Tue/Wed/Thu/Fri/Sat/Sun Rule, !- Name
  {1705fe4b-cccc-4044-b8a6-abaf7e5b66a3}, !- Schedule Ruleset Name
  3,                                      !- Rule Order
  {6c1ccb82-660e-407b-9d85-758cec56d7e3}, !- Day Schedule Name
  Yes,                                    !- Apply Sunday
  Yes,                                    !- Apply Monday
  Yes,                                    !- Apply Tuesday
  Yes,                                    !- Apply Wednesday
  Yes,                                    !- Apply Thursday
  Yes,                                    !- Apply Friday
  Yes,                                    !- Apply Saturday
  ,                                       !- Apply Holiday
  DateRange,                              !- Date Specification Type
  9,                                      !- Start Month
  1,                                      !- Start Day
  12,                                     !- End Month
  31;                                     !- End Day

OS:Schedule:Day,
  {6c1ccb82-660e-407b-9d85-758cec56d7e3}, !- Handle
  0800|1600|SecondarySchool|Cafeteria|occ |9/1-12/31|Mon/Tue/Wed/Thu/Fri/Sat/Sun, !- Name
  {6a8bfd38-8cd1-4a9c-905a-ee74a31a24b7}, !- Schedule Type Limits Name
  ,                                       !- Interpolate to Timestep
  7,                                      !- Hour 1
  0,                                      !- Minute 1
  0,                                      !- Value Until Time 1
  9,                                      !- Hour 2
  0,                                      !- Minute 2
  0.15,                                   !- Value Until Time 2
  11,                                     !- Hour 3
  0,                                      !- Minute 3
  0.05,                                   !- Value Until Time 3
  13,                                     !- Hour 4
  0,                                      !- Minute 4
  0.95,                                   !- Value Until Time 4
  15,                                     !- Hour 5
  0,                                      !- Minute 5
  0.15,                                   !- Value Until Time 5
  24,                                     !- Hour 6
  0,                                      !- Minute 6
  0;                                      !- Value Until Time 6

OS:Schedule:Rule,
  {b1d281e8-fbf3-4457-bbbf-7520de2ac929}, !- Handle
  0800|1600|SecondarySchool|Cafeteria|occ |9/1-12/31|Sat/Sun Rule, !- Name
  {1705fe4b-cccc-4044-b8a6-abaf7e5b66a3}, !- Schedule Ruleset Name
  4,                                      !- Rule Order
  {16d13ba4-059d-4841-9981-14b33fcbece3}, !- Day Schedule Name
  Yes,                                    !- Apply Sunday
  ,                                       !- Apply Monday
  ,                                       !- Apply Tuesday
  ,                                       !- Apply Wednesday
  ,                                       !- Apply Thursday
  ,                                       !- Apply Friday
  Yes,                                    !- Apply Saturday
  ,                                       !- Apply Holiday