
OS:Version,
  {ecdbd80e-cce6-47ca-a251-854c23305772}, !- Handle
  1.5.5;                                  !- Version Identifier

OS:ClimateZones,
  {135edfab-17e7-40db-a436-27d385a8cd6d}, !- Handle
  ,                                       !- Active Institution
  ,                                       !- Active Year
  ASHRAE,                                 !- Climate Zone Institution Name 1
  ANSI/ASHRAE Standard 169,               !- Climate Zone Document Name 1
  2006,                                   !- Climate Zone Document Year 1
  ,                                       !- Climate Zone Value 1
  CEC,                                    !- Climate Zone Institution Name 2
  California Climate Zone Descriptions,   !- Climate Zone Document Name 2
  1995,                                   !- Climate Zone Document Year 2
  ;                                       !- Climate Zone Value 2

OS:YearDescription,
  {513d8dda-86cb-442a-b01c-1f7f0e0ac70e}; !- Handle

OS:RadianceParameters,
  {270a96f1-3c86-4b75-a667-cdf22790e2c8}, !- Handle
  1,                                      !- Accumulated Rays per Record
  0,                                      !- Direct Threshold
  1,                                      !- Direct Certainty
  1,                                      !- Direct Jitter
  1,                                      !- Direct Pretest
  6,                                      !- Ambient Bounces VMX
  2,                                      !- Ambient Bounces DMX
  4050,                                   !- Ambient Divisions VMX
  512,                                    !- Ambient Divisions DMX
  256,                                    !- Ambient Supersamples
  0.001,                                  !- Limit Weight VMX
  0.001,                                  !- Limit Weight DMX
  500,                                    !- Klems Sampling Density
  146;                                    !- Sky Discretization Resolution

OS:SimulationControl,
  {2c487a4c-bac9-4ac5-b669-1e49d9da7c2b}, !- Handle
  ,                                       !- Do Zone Sizing Calculation
  ,                                       !- Do System Sizing Calculation
  ,                                       !- Do Plant Sizing Calculation
  No,                                     !- Run Simulation for Sizing Periods
  ,                                       !- Run Simulation for Weather File Run Periods
  0.04,                                   !- Loads Convergence Tolerance Value
  ,                                       !- Temperature Convergence Tolerance Value {deltaC}
  ,                                       !- Solar Distribution
  ,                                       !- Maximum Number of Warmup Days
  2;                                      !- Minimum Number of Warmup Days

OS:Sizing:Parameters,
  {dde5af6f-7923-4600-a28a-7556673a0266}, !- Handle
  1.25,                                   !- Heating Sizing Factor
  1.15;                                   !- Cooling Sizing Factor

OS:ProgramControl,
  {05027a99-f2b3-4aeb-afc6-1425fbb4371d}; !- Handle

OS:Timestep,
  {4ebc9f1e-4707-402e-9844-67eb1ffbd522}, !- Handle
  2;                                      !- Number of Timesteps per Hour

OS:OutputControl:ReportingTolerances,
  {65797aa2-06a9-45fe-b69d-bc6e060399d3}; !- Handle

OS:ConvergenceLimits,
  {9fc11aba-8822-4f3d-970c-46391ba4040d}; !- Handle

OS:ShadowCalculation,
  {ca758bea-4416-4626-9bba-3d8795c79bd6}, !- Handle
  7,                                      !- Calculation Frequency
  15000;                                  !- Maximum Figures in Shadow Overlap Calculations

OS:SurfaceConvectionAlgorithm:Inside,
  {aaabfc36-718a-4ab0-b622-f186ebb45230}, !- Handle
  TARP;                                   !- Algorithm

OS:SurfaceConvectionAlgorithm:Outside,
  {9a0a9f6f-4bbd-4b12-a121-9492a1fcd7d6}, !- Handle
  DOE-2;                                  !- Algorithm

OS:HeatBalanceAlgorithm,
  {9d93e563-e1e0-46d7-9e39-d1c8aceb7212}, !- Handle
  ConductionTransferFunction,             !- Algorithm
  200;                                    !- Surface Temperature Upper Limit {F}

OS:ZoneAirHeatBalanceAlgorithm,
  {8520d93e-310f-4696-9bcd-36228bfdd743}, !- Handle
  AnalyticalSolution;                     !- Algorithm

OS:ZoneAirContaminantBalance,
  {eb5fc3ae-fb22-4160-8fcb-3e3b22b000d3}; !- Handle

OS:ZoneCapacitanceMultiplier:ResearchSpecial,
  {4020ce4f-5a7a-4849-8028-8305d7b751b1}, !- Handle
  ,                                       !- Temperature Capacity Multiplier
  ,                                       !- Humidity Capacity Multiplier
  ;                                       !- Carbon Dioxide Capacity Multiplier

OS:RunPeriod,
  {28df894d-6af9-4fb8-8f56-df1753344aa3}, !- Handle
  Run Period 1,                           !- Name
  1,                                      !- Begin Month
  1,                                      !- Begin Day of Month
  12,                                     !- End Month
  31,                                     !- End Day of Month
  ,                                       !- Use Weather File Holidays and Special Days
  ,                                       !- Use Weather File Daylight Saving Period
  ,                                       !- Apply Weekend Holiday Rule
  ,                                       !- Use Weather File Rain Indicators
  ,                                       !- Use Weather File Snow Indicators
  ;                                       !- Number of Times Runperiod to be Repeated

OS:Building,
  {bf305633-c5a1-4881-9edf-ca5e1a8e1274}, !- Handle
  Building 1,                             !- Name
  ,                                       !- Building Sector Type
  ,                                       !- North Axis {deg}
  ,                                       !- Nominal Floor to Floor Height {m}
  ,                                       !- Space Type Name
  ,                                       !- Default Construction Set Name
  {ba9440da-211c-4308-8bf3-1767805a9c8c}, !- Default Schedule Set Name
  ,                                       !- Standards Number of Stories
  ,                                       !- Standards Number of Above Ground Stories
  SecondarySchool;                        !- Standards Building Type

OS:LifeCycleCost:Parameters,
  {231cf8a0-f0e7-4251-a99f-11f0d464e661}, !- Handle
  FEMP,                                   !- Analysis Type
  ,                                       !- Discounting Convention
  ,                                       !- Inflation Approach
  ,                                       !- Real Discount Rate
  ,                                       !- Nominal Discount Rate
  ,                                       !- Inflation
  ,                                       !- Base Date Month
  ,                                       !- Base Date Year
  ,                                       !- Service Date Month
  ,                                       !- Service Date Year
  ,                                       !- Length of Study Period in Years
  ,                                       !- Tax Rate
  ,                                       !- Depreciation Method
  Yes;                                    !- Use NIST Fuel Escalation Rates

OS:Facility,
  {3ba8e45b-b833-44eb-a723-ea6c3946dc96}; !- Handle

OS:SpaceType,
  {c439205c-2f8b-4f6b-a97e-309bb7dea70e}, !- Handle
  SecondarySchool|BlendEdu|DOE Ref Pre-1980|ASHRAE 169-2006-5A, !- Name
  {8d9d9a36-4017-4b8d-9c97-97ff9ad673d2}, !- Default Construction Set Name
  ,                                       !- Default Schedule Set Name
  {5f19bddf-9c11-4aba-9c61-015feb56c309}, !- Group Rendering Name
  {08ea1bd3-a7c9-4d7a-862c-39881f211994}, !- Design Specification Outdoor Air Object Name
  SecondarySchool,                        !- Standards Building Type
  BlendEdu;                               !- Standards Space Type

OS:Rendering:Color,
  {5f19bddf-9c11-4aba-9c61-015feb56c309}, !- Handle
  Rendering Color 1,                      !- Name
  120,                                    !- Rendering Red Value
  230,                                    !- Rendering Green Value
  199;                                    !- Rendering Blue Value

OS:SpaceType,
  {648a111b-2252-40a7-92c9-53ba38be1c2a}, !- Handle
  SecondarySchool|BlendOff|DOE Ref Pre-1980|ASHRAE 169-2006-5A, !- Name
  {8d9d9a36-4017-4b8d-9c97-97ff9ad673d2}, !- Default Construction Set Name
  ,                                       !- Default Schedule Set Name
  {21871599-5ddb-4245-8f86-fed4efab6208}, !- Group Rendering Name
  {240b9192-5b2d-464b-9490-a6f00949d214}, !- Design Specification Outdoor Air Object Name
  SecondarySchool,                        !- Standards Building Type
  BlendOff;                               !- Standards Space Type

OS:Rendering:Color,
  {21871599-5ddb-4245-8f86-fed4efab6208}, !- Handle
  Rendering Color 2,                      !- Name
  120,                                    !- Rendering Red Value
  230,                                    !- Rendering Green Value
  199;                                    !- Rendering Blue Value

OS:SpaceType,
  {2c96ab6f-0e7e-4a02-9a55-ecf65e619973}, !- Handle
  SecondarySchool|Gym|DOE Ref Pre-1980|ASHRAE 169-2006-5A, !- Name
  {8d9d9a36-4017-4b8d-9c97-97ff9ad673d2}, !- Default Construction Set Name
  {72a5960c-f4e6-43fd-8ef2-fb9346523265}, !- Default Schedule Set Name
  {7280f44e-c070-41f4-862f-937c99b2d7a4}, !- Group Rendering Name
  {8536cb13-e3e1-4f2f-90b6-a748556a26c9}, !- Design Specification Outdoor Air Object Name
  SecondarySchool,                        !- Standards Building Type
  Gym;                                    !- Standards Space Type

OS:Rendering:Color,
  {7280f44e-c070-41f4-862f-937c99b2d7a4}, !- Handle
  Rendering Color 3,                      !- Name
  154,                                    !- Rendering Red Value
  230,                                    !- Rendering Green Value
  120;                                    !- Rendering Blue Value

OS:SpaceType,
  {58b03806-48f7-47ae-a814-9befada0394d}, !- Handle
  SecondarySchool|Auditorium|DOE Ref Pre-1980|ASHRAE 169-2006-5A, !- Name
  {8d9d9a36-4017-4b8d-9c97-97ff9ad673d2}, !- Default Construction Set Name
  {7c9e49d4-a86f-4530-91d1-2cb9836ec0ff}, !- Default Schedule Set Name
  {43fabc5a-9ca1-4229-8580-277a8d854b1b}, !- Group Rendering Name
  {967d6b62-7c31-4a44-b68f-41e854bc8141}, !- Design Specification Outdoor Air Object Name
  SecondarySchool,                        !- Standards Building Type
  Auditorium;                             !- Standards Space Type

OS:Rendering:Color,
  {43fabc5a-9ca1-4229-8580-277a8d854b1b}, !- Handle
  Rendering Color 4,                      !- Name
  230,                                    !- Rendering Red Value
  196,                                    !- Rendering Green Value
  120;                                    !- Rendering Blue Value

OS:SpaceType,
  {404d55fa-963b-4acc-8133-c50a4c783c75}, !- Handle
  SecondarySchool|Library|DOE Ref Pre-1980|ASHRAE 169-2006-5A, !- Name
  {8d9d9a36-4017-4b8d-9c97-97ff9ad673d2}, !- Default Construction Set Name
  {678daf47-0c68-42d8-bb12-a821bdd9334b}, !- Default Schedule Set Name
  {dbaf7474-1202-4659-9d88-783353e0989e}, !- Group Rendering Name
  {a4dde49c-10ad-4efa-ae3f-65f9d99fcf30}, !- Design Specification Outdoor Air Object Name
  SecondarySchool,                        !- Standards Building Type
  Library;                                !- Standards Space Type

OS:Rendering:Color,
  {dbaf7474-1202-4659-9d88-783353e0989e}, !- Handle
  Rendering Color 5,                      !- Name
  230,                                    !- Rendering Red Value
  196,                                    !- Rendering Green Value
  120;                                    !- Rendering Blue Value

OS:SpaceType,
  {9bdea75b-87fb-473e-9f67-75d7115d2241}, !- Handle
  SecondarySchool|Cafeteria|DOE Ref Pre-1980|ASHRAE 169-2006-5A, !- Name
  {8d9d9a36-4017-4b8d-9c97-97ff9ad673d2}, !- Default Construction Set Name
  {fed0cdac-bea8-45d9-9388-86456c5184ae}, !- Default Schedule Set Name
  {9ae27ca3-1ad2-4004-b39d-e266a748744f}, !- Group Rendering Name
  {af31cb79-b9b8-42ab-8992-718ed16c9d6a}, !- Design Specification Outdoor Air Object Name
  SecondarySchool,                        !- Standards Building Type
  Cafeteria;                              !- Standards Space Type

OS:Rendering:Color,
  {9ae27ca3-1ad2-4004-b39d-e266a748744f}, !- Handle
  Rendering Color 6,                      !- Name
  31,                                     !- Rendering Red Value
  169,                                    !- Rendering Green Value
  34;                                     !- Rendering Blue Value

OS:SpaceType,
  {5363d20c-8dcf-4c83-8af1-1c7b053134eb}, !- Handle
  SecondarySchool|Kitchen|DOE Ref Pre-1980|ASHRAE 169-2006-5A, !- Name
  {8d9d9a36-4017-4b8d-9c97-97ff9ad673d2}, !- Default Construction Set Name
  {d236ad16-03b2-4b99-8788-7c006dc428fe}, !- Default Schedule Set Name
  {467faaf9-20ef-450f-a338-074c50e786b2}, !- Group Rendering Name
  {5ca3cd30-a8bc-48ba-ba74-ae8322a4cbe2}, !- Design Specification Outdoor Air Object Name
  SecondarySchool,                        !- Standards Building Type
  Kitchen;                                !- Standards Space Type

OS:Rendering:Color,
  {467faaf9-20ef-450f-a338-074c50e786b2}, !- Handle
  Rendering Color 7,                      !- Name
  78,                                     !- Rendering Red Value
  222,                                    !- Rendering Green Value
  133;                                    !- Rendering Blue Value

OS:Schedule:Ruleset,
  {cec66672-71d1-4cb4-9927-09b29a11f19c}, !- Handle
  0800|1600|SecondarySchool|default|hoo,  !- Name
  {2e865827-5190-47f6-8e77-0a6f1025c2b3}, !- Schedule Type Limits Name
  {10a1d0da-fa93-4186-a61c-63ce6ff5a86f}, !- Default Day Schedule Name
  {771e125a-f27b-4c12-8dc9-c2c834906219}, !- Summer Design Day Schedule Name
  {92f8a5c2-532a-4793-8e1d-e3f5ebea80a5}; !- Winter Design Day Schedule Name

OS:Schedule:Day,
  {10a1d0da-fa93-4186-a61c-63ce6ff5a86f}, !- Handle
  0800|1600|SecondarySchool|default|hoo Schedule Week Day, !- Name
  {2e865827-5190-47f6-8e77-0a6f1025c2b3}, !- Schedule Type Limits Name
  ,                                       !- Interpolate to Timestep
  8,                                      !- Hour 1
  0,                                      !- Minute 1
  0,                                      !- Value Until Time 1
  16,                                     !- Hour 2
  0,                                      !- Minute 2
  1,                                      !- Value Until Time 2
  24,                                     !- Hour 3
  0,                                      !- Minute 3
  0;                                      !- Value Until Time 3

OS:Schedule:Day,
  {1d2c59ff-0c66-4827-8a72-0f6516c264a4}, !- Handle
  Schedule Day 2,                         !- Name
  ,                                       !- Schedule Type Limits Name
  ,                                       !- Interpolate to Timestep
  24,                                     !- Hour 1
  0,                                      !- Minute 1
  0;                                      !- Value Until Time 1

OS:Schedule:Day,
  {92f8a5c2-532a-4793-8e1d-e3f5ebea80a5}, !- Handle
  0800|1600|SecondarySchool|default|hoo Winter Design Day, !- Name
  {2e865827-5190-47f6-8e77-0a6f1025c2b3}, !- Schedule Type Limits Name
  ,                                       !- Interpolate to Timestep
  24,                                     !- Hour 1
  0,                                      !- Minute 1
  0;                                      !- Value Until Time 1

OS:Schedule:Day,
  {fa3d795a-d24c-40ba-93e2-52fee94eec3b}, !- Handle
  Schedule Day 3,                         !- Name
  ,                                       !- Schedule Type Limits Name
  ,                                       !- Interpolate to Timestep
  24,                                     !- Hour 1
  0,                                      !- Minute 1
  0;                                      !- Value Until Time 1

OS:Schedule:Day,
  {771e125a-f27b-4c12-8dc9-c2c834906219}, !- Handle
  0800|1600|SecondarySchool|default|hoo Summer Design Day, !- Name
  {2e865827-5190-47f6-8e77-0a6f1025c2b3}, !- Schedule Type Limits Name
  ,                                       !- Interpolate to Timestep
  24,                                     !- Hour 1
  0,                                      !- Minute 1
  1;                                      !- Value Until Time 1

OS:DefaultScheduleSet,
  {ba9440da-211c-4308-8bf3-1767805a9c8c}, !- Handle
  Building Hours of Operation,            !- Name
  {cec66672-71d1-4cb4-9927-09b29a11f19c}, !- Hours of Operation Schedule Name
  ,                                       !- Number of People Schedule Name
  ,                                       !- People Activity Level Schedule Name
  ,                                       !- Lighting Schedule Name
  ,                                       !- Electric Equipment Schedule Name
  ,                                       !- Gas Equipment Schedule Name
  ,                                       !- Hot Water Equipment Schedule Name
  ,                                       !- Infiltration Schedule Name
  ,                                       !- Steam Equipment Schedule Name
  ;                                       !- Other Equipment Schedule Name

OS:ScheduleTypeLimits,
  {2e865827-5190-47f6-8e77-0a6f1025c2b3}, !- Handle
  OnOff,                                  !- Name
  0,                                      !- Lower Limit Value {BasedOnField A4}
  1,                                      !- Upper Limit Value {BasedOnField A4}
  Discrete,                               !- Numeric Type
  Availability;                           !- Unit Type

OS:Schedule:Ruleset,
  {7d29bdc7-200a-4259-9c87-4cdf81979adc}, !- Handle
  0800|1600|SecondarySchool|default|elec_equip, !- Name
  {a75d8695-5a77-49d1-aea3-1560438a2841}, !- Schedule Type Limits Name
  {46c6130b-1637-4797-a620-cfd71bf45431}, !- Default Day Schedule Name
  {014a65e5-6dd9-43e2-851b-d3ffdf7fb169}, !- Summer Design Day Schedule Name
  {77a38e06-b74f-4ef9-bf0f-16ac47ff81d2}; !- Winter Design Day Schedule Name

OS:ScheduleTypeLimits,
  {a75d8695-5a77-49d1-aea3-1560438a2841}, !- Handle
  Equipment Schedule Type Limits,         !- Name
  0,                                      !- Lower Limit Value {BasedOnField A4}
  1,                                      !- Upper Limit Value {BasedOnField A4}
  Continuous,                             !- Numeric Type
  Dimensionless;                          !- Unit Type

OS:Schedule:Day,
  {46c6130b-1637-4797-a620-cfd71bf45431}, !- Handle
  0800|1600|SecondarySchool|default|elec_equip |default, !- Name
  {a75d8695-5a77-49d1-aea3-1560438a2841}, !- Schedule Type Limits Name
  ,                                       !- Interpolate to Timestep
  8,                                      !- Hour 1
  0,                                      !- Minute 1
  0.35,                                   !- Value Until Time 1
  17,                                     !- Hour 2
  0,                                      !- Minute 2
  0.95,                                   !- Value Until Time 2
  24,                                     !- Hour 3
  0,                                      !- Minute 3
  0.35;                                   !- Value Until Time 3

OS:Schedule:Day,
  {014a65e5-6dd9-43e2-851b-d3ffdf7fb169}, !- Handle
  0800|1600|SecondarySchool|default|elec_equip Summer Design Day, !- Name
  {a75d8695-5a77-49d1-aea3-1560438a2841}, !- Schedule Type Limits Name
  ,                                       !- Interpolate to Timestep
  24,                                     !- Hour 1
  0,                                      !- Minute 1
  1;                                      !- Value Until Time 1

OS:Schedule:Day,
  {77a38e06-b74f-4ef9-bf0f-16ac47ff81d2}, !- Handle
  0800|1600|SecondarySchool|default|elec_equip Winter Design Day, !- Name
  {a75d8695-5a77-49d1-aea3-1560438a2841}, !- Schedule Type Limits Name
  ,                                       !- Interpolate to Timestep
  24,                                     !- Hour 1
  0,                                      !- Minute 1
  0.35;                                   !- Value Until Time 1

OS:Schedule:Rule,
  {eebe77c6-c13c-4c7c-b22d-8e8a0589363a}, !- Handle
  0800|1600|SecondarySchool|default|elec_equip |1/1-6/30|Sat/Sun Rule, !- Name
  {7d29bdc7-200a-4259-9c87-4cdf81979adc}, !- Schedule Ruleset Name
  0,                                      !- Rule Order
  {91107f8d-fa98-49fc-ad07-083a4944f501}, !- Day Schedule Name
  Yes,                                    !- Apply Sunday
  ,                                       !- Apply Monday
  ,                                       !- Apply Tuesday
  ,                                       !- Apply Wednesday
  ,                                       !- Apply Thursday
  ,                                       !- Apply Friday
  Yes,                                    !- Apply Saturday
  ,                                       !- Apply Holiday
  DateRange,                              !- Date Specification Type
  1,                                      !- Start Month
  1,                                      !- Start Day
  6,                                      !- End Month
  30;                                     !- End Day

OS:Schedule:Day,
  {91107f8d-fa98-49fc-ad07-083a4944f501}, !- Handle
  0800|1600|SecondarySchool|default|elec_equip |1/1-6/30|Sat/Sun, !- Name
  {a75d8695-5a77-49d1-aea3-1560438a2841}, !- Schedule Type Limits Name
  ,                                       !- Interpolate to Timestep
  24,                                     !- Hour 1
  0,                                      !- Minute 1
  0.35;                                   !- Value Until Time 1

OS:Schedule:Rule,
  {536a9da1-bf4c-482c-8860-08d56b7826cb}, !- Handle
  0800|1600|SecondarySchool|default|elec_equip |7/1-9/1|Mon/Tue/Wed/Thu/Fri/Sat/Sun Rule, !- Name
  {7d29bdc7-200a-4259-9c87-4cdf81979adc}, !- Schedule Ruleset Name
  1,                                      !- Rule Order
  {26aa24b9-2c83-4a32-897d-3eef93dde260}, !- Day Schedule Name
  Yes,                                    !- Apply Sunday
  Yes,                                    !- Apply Monday
  Yes,                                    !- Apply Tuesday
  Yes,                                    !- Apply Wednesday
  Yes,                                    !- Apply Thursday
  Yes,                                    !- Apply Friday
  Yes,                                    !- Apply Saturday
  ,                                       !- Apply Holiday
  DateRange,                              !- Date Specification Type
  7,                                      !- Start Month
  1,                                      !- Start Day
  9,                                      !- End Month
  1;                                      !- End Day

OS:Schedule:Day,
  {26aa24b9-2c83-4a32-897d-3eef93dde260}, !- Handle
  0800|1600|SecondarySchool|default|elec_equip |7/1-9/1|Mon/Tue/Wed/Thu/Fri/Sat/Sun, !- Name
  {a75d8695-5a77-49d1-aea3-1560438a2841}, !- Schedule Type Limits Name
  ,                                       !- Interpolate to Timestep
  8,                                      !- Hour 1
  0,                                      !- Minute 1
  0.25,                                   !- Value Until Time 1
  17,                                     !- Hour 2
  0,                                      !- Minute 2
  0.5,                                    !- Value Until Time 2
  24,                                     !- Hour 3
  0,                                      !- Minute 3
  0.25;                                   !- Value Until Time 3

OS:Schedule:Rule,
  {4cf1c8af-28e0-4a49-9450-d4ee2dc0d99a}, !- Handle
  0800|1600|SecondarySchool|default|elec_equip |7/1-9/1|Sat/Sun Rule, !- Name
  {7d29bdc7-200a-4259-9c87-4cdf81979adc}, !- Schedule Ruleset Name
  2,                                      !- Rule Order
  {35c2f90c-d076-43d1-8993-08d7ac113d86}, !- Day Schedule Name
  Yes,                                    !- Apply Sunday
  ,                                       !- Apply Monday
  ,                                       !- Apply Tuesday
  ,                                       !- Apply Wednesday
  ,                                       !- Apply Thursday
  ,                                       !- Apply Friday
  Yes,                                    !- Apply Saturday
  ,                                       !- Apply Holiday
  DateRange,                              !- Date Specification Type
  7,                                      !- Start Month
  1,                                      !- Start Day
  9,                                      !- End Month
  1;                                      !- End Day

OS:Schedule:Day,
  {35c2f90c-d076-43d1-8993-08d7ac113d86}, !- Handle
  0800|1600|SecondarySchool|default|elec_equip |7/1-9/1|Sat/Sun, !- Name
  {a75d8695-5a77-49d1-aea3-1560438a2841}, !- Schedule Type Limits Name
  ,                                       !- Interpolate to Timestep
  24,                                     !- Hour 1
  0,                                      !- Minute 1
  0.25;                                   !- Value Until Time 1

OS:Schedule:Rule,
  {4b47ea56-6b49-4d31-9249-aaff4c7414c2}, !- Handle
  0800|1600|SecondarySchool|default|elec_equip |9/1-12/31|Mon/Tue/Wed/Thu/Fri/Sat/Sun Rule, !- Name
  {7d29bdc7-200a-4259-9c87-4cdf81979adc}, !- Schedule Ruleset Name
  3,                                      !- Rule Order
  {3196e16a-5a5d-430f-8d1b-bf078e054c9a}, !- Day Schedule Name
  Yes,                                    !- Apply Sunday
  Yes,                                    !- Apply Monday
  Yes,                                    !- Apply Tuesday
  Yes,                                    !- Apply Wednesday
  Yes,                                    !- Apply Thursday
  Yes,                                    !- Apply Friday
  Yes,                                    !- Apply Saturday
  ,                                       !- Apply Holiday
  DateRange,                              !- Date Specification Type
  9,                                      !- Start Month
  1,                                      !- Start Day
  12,                                     !- End Month
  31;                                     !- End Day

OS:Schedule:Day,
  {3196e16a-5a5d-430f-8d1b-bf078e054c9a}, !- Handle
  0800|1600|SecondarySchool|default|elec_equip |9/1-12/31|Mon/Tue/Wed/Thu/Fri/Sat/Sun, !- Name
  {a75d8695-5a77-49d1-aea3-1560438a2841}, !- Schedule Type Limits Name
  ,                                       !- Interpolate to Timestep
  8,                                      !- Hour 1
  0,                                      !- Minute 1
  0.35,                                   !- Value Until Time 1
  17,                                     !- Hour 2
  0,                                      !- Minute 2
  0.95,                                   !- Value Until Time 2
  24,                                     !- Hour 3
  0,                                      !- Minute 3
  0.35;                                   !- Value Until Time 3

OS:Schedule:Rule,
  {730cf1c7-863e-44ba-8fc6-0dbd874a4823}, !- Handle
  0800|1600|SecondarySchool|default|elec_equip |9/1-12/31|Sat/Sun Rule, !- Name
  {7d29bdc7-200a-4259-9c87-4cdf81979adc}, !- Schedule Ruleset Name
  4,                                      !- Rule Order
  {3490d29e-81fe-423e-a95d-4a106c9e2600}, !- Day Schedule Name
  Yes,                                    !- Apply Sunday
  ,                                       !- Apply Monday
  ,                                       !- Apply Tuesday
  ,                                       !- Apply Wednesday
  ,                                       !- Apply Thursday
  ,                                       !- Apply Friday
  Yes,                                    !- Apply Saturday
  ,                                       !- Apply Holiday
  DateRange,                              !- Date Specification Type
  9,                                      !- Start Month
  1,                                      !- Start Day
  12,                                     !- End Month
  31;                                     !- End Day

OS:Schedule:Day,
  {3490d29e-81fe-423e-a95d-4a106c9e2600}, !- Handle
  0800|1600|SecondarySchool|default|elec_equip |9/1-12/31|Sat/Sun, !- Name
  {a75d8695-5a77-49d1-aea3-1560438a2841}, !- Schedule Type Limits Name
  ,                                       !- Interpolate to Timestep
  24,                                     !- Hour 1
  0,                                      !- Minute 1
  0.35;                                   !- Value Until Time 1

OS:Schedule:Ruleset,
  {a6d05d28-39e9-412f-8a7d-497d6979da5c}, !- Handle
  0800|1600|SecondarySchool|Auditorium|occ, !- Name
  {75ec4ff9-02f7-4ce7-b02e-da543d999180}, !- Schedule Type Limits Name
  {94b8e8e0-0b95-4adc-b138-feca9a184760}, !- Default Day Schedule Name
  {d5380b62-7a97-4230-a872-b99a7ff304f6}, !- Summer Design Day Schedule Name
  {102f8780-76d2-453d-bca2-7be1c65eb49e}; !- Winter Design Day Schedule Name

OS:ScheduleTypeLimits,
  {75ec4ff9-02f7-4ce7-b02e-da543d999180}, !- Handle
  Occupancy Schedule Type Limits,         !- Name
  0,                                      !- Lower Limit Value {BasedOnField A4}
  1,                                      !- Upper Limit Value {BasedOnField A4}
  Continuous,                             !- Numeric Type
  Dimensionless;                          !- Unit Type

OS:Schedule:Day,
  {94b8e8e0-0b95-4adc-b138-feca9a184760}, !- Handle
  0800|1600|SecondarySchool|Auditorium|occ |default, !- Name
  {75ec4ff9-02f7-4ce7-b02e-da543d999180}, !- Schedule Type Limits Name
  ,                                       !- Interpolate to Timestep