
OS:Version,
  {e208bb1d-60f4-4417-95ca-fe5f3d1509b5}, !- Handle
  1.6.0;                                  !- Version Identifier

OS:ClimateZones,
  {135edfab-17e7-40db-a436-27d385a8cd6d}, !- Handle
  ,                                       !- Active Institution
  ,                                       !- Active Year
  ASHRAE,                                 !- Climate Zone Institution Name 1
  ANSI/ASHRAE Standard 169,               !- Climate Zone Document Name 1
  2006,                                   !- Climate Zone Document Year 1
  ,                                       !- Climate Zone Value 1
  CEC,                                    !- Climate Zone Institution Name 2
  California Climate Zone Descriptions,   !- Climate Zone Document Name 2
  1995,                                   !- Climate Zone Document Year 2
  ;                                       !- Climate Zone Value 2

OS:YearDescription,
  {513d8dda-86cb-442a-b01c-1f7f0e0ac70e}; !- Handle

OS:RadianceParameters,
  {270a96f1-3c86-4b75-a667-cdf22790e2c8}, !- Handle
  1,                                      !- Accumulated Rays per Record
  0,                                      !- Direct Threshold
  1,                                      !- Direct Certainty
  1,                                      !- Direct Jitter
  1,                                      !- Direct Pretest
  6,                                      !- Ambient Bounces VMX
  2,                                      !- Ambient Bounces DMX
  4050,                                   !- Ambient Divisions VMX
  512,                                    !- Ambient Divisions DMX
  256,                                    !- Ambient Supersamples
  0.001,                                  !- Limit Weight VMX
  0.001,                                  !- Limit Weight DMX
  500,                                    !- Klems Sampling Density
  146;                                    !- Sky Discretization Resolution

OS:SimulationControl,
  {2c487a4c-bac9-4ac5-b669-1e49d9da7c2b}, !- Handle
  ,                                       !- Do Zone Sizing Calculation
  ,                                       !- Do System Sizing Calculation
  ,                                       !- Do Plant Sizing Calculation
  No,                                     !- Run Simulation for Sizing Periods
  ,                                       !- Run Simulation for Weather File Run Periods
  0.04,                                   !- Loads Convergence Tolerance Value
  ,                                       !- Temperature Convergence Tolerance Value {deltaC}
  ,                                       !- Solar Distribution
  ,                                       !- Maximum Number of Warmup Days
  2;                                      !- Minimum Number of Warmup Days

OS:Sizing:Parameters,
  {dde5af6f-7923-4600-a28a-7556673a0266}, !- Handle
  1.25,                                   !- Heating Sizing Factor
  1.15;                                   !- Cooling Sizing Factor

OS:ProgramControl,
  {05027a99-f2b3-4aeb-afc6-1425fbb4371d}; !- Handle

OS:Timestep,
  {4ebc9f1e-4707-402e-9844-67eb1ffbd522}, !- Handle
  2;                                      !- Number of Timesteps per Hour

OS:OutputControl:ReportingTolerances,
  {65797aa2-06a9-45fe-b69d-bc6e060399d3}; !- Handle

OS:ConvergenceLimits,
  {9fc11aba-8822-4f3d-970c-46391ba4040d}; !- Handle

OS:ShadowCalculation,
  {ca758bea-4416-4626-9bba-3d8795c79bd6}, !- Handle
  7,                                      !- Calculation Frequency
  15000;                                  !- Maximum Figures in Shadow Overlap Calculations

OS:SurfaceConvectionAlgorithm:Inside,
  {aaabfc36-718a-4ab0-b622-f186ebb45230}, !- Handle
  TARP;                                   !- Algorithm

OS:SurfaceConvectionAlgorithm:Outside,
  {9a0a9f6f-4bbd-4b12-a121-9492a1fcd7d6}, !- Handle
  DOE-2;                                  !- Algorithm

OS:HeatBalanceAlgorithm,
  {9d93e563-e1e0-46d7-9e39-d1c8aceb7212}, !- Handle
  ConductionTransferFunction,             !- Algorithm
  200;                                    !- Surface Temperature Upper Limit {F}

OS:ZoneAirHeatBalanceAlgorithm,
  {8520d93e-310f-4696-9bcd-36228bfdd743}, !- Handle
  AnalyticalSolution;                     !- Algorithm

OS:ZoneAirContaminantBalance,
  {eb5fc3ae-fb22-4160-8fcb-3e3b22b000d3}; !- Handle

OS:ZoneCapacitanceMultiplier:ResearchSpecial,
  {4020ce4f-5a7a-4849-8028-8305d7b751b1}, !- Handle
  ,                                       !- Temperature Capacity Multiplier
  ,                                       !- Humidity Capacity Multiplier
  ;                                       !- Carbon Dioxide Capacity Multiplier

OS:RunPeriod,
  {28df894d-6af9-4fb8-8f56-df1753344aa3}, !- Handle
  Run Period 1,                           !- Name
  1,                                      !- Begin Month
  1,                                      !- Begin Day of Month
  12,                                     !- End Month
  31,                                     !- End Day of Month
  ,                                       !- Use Weather File Holidays and Special Days
  ,                                       !- Use Weather File Daylight Saving Period
  ,                                       !- Apply Weekend Holiday Rule
  ,                                       !- Use Weather File Rain Indicators
  ,                                       !- Use Weather File Snow Indicators
  ;                                       !- Number of Times Runperiod to be Repeated

OS:Building,
  {bf305633-c5a1-4881-9edf-ca5e1a8e1274}, !- Handle
  Building 1,                             !- Name
  ,                                       !- Building Sector Type
  ,                                       !- North Axis {deg}
  ,                                       !- Nominal Floor to Floor Height {m}
  ,                                       !- Space Type Name
  ,                                       !- Default Construction Set Name
  {1c35fcc0-ce8d-4362-a66f-c77a661f92c3}, !- Default Schedule Set Name
  ,                                       !- Standards Number of Stories
  ,                                       !- Standards Number of Above Ground Stories
  MidriseApartment;                       !- Standards Building Type

OS:LifeCycleCost:Parameters,
  {231cf8a0-f0e7-4251-a99f-11f0d464e661}, !- Handle
  FEMP,                                   !- Analysis Type
  ,                                       !- Discounting Convention
  ,                                       !- Inflation Approach
  ,                                       !- Real Discount Rate
  ,                                       !- Nominal Discount Rate
  ,                                       !- Inflation
  ,                                       !- Base Date Month
  ,                                       !- Base Date Year
  ,                                       !- Service Date Month
  ,                                       !- Service Date Year
  ,                                       !- Length of Study Period in Years
  ,                                       !- Tax Rate
  ,                                       !- Depreciation Method
  Yes;                                    !- Use NIST Fuel Escalation Rates

OS:Facility,
  {3ba8e45b-b833-44eb-a723-ea6c3946dc96}; !- Handle

OS:SpaceType,
  {ad3dd1e1-680d-43b4-b9b7-b0fed01713f5}, !- Handle
  MidriseApartment|Apartment|DOE Ref 1980-2004|ASHRAE 169-2006-5A, !- Name
  {4e7327e6-f27f-4e83-b0ae-6721ed6d21a4}, !- Default Construction Set Name
  {aa0da864-efc2-4ed3-84b5-49a0f14a0b27}, !- Default Schedule Set Name
  {73288233-8c41-4053-ba80-c6dbb4ba8442}, !- Group Rendering Name
  {a66eb81b-9453-4bd9-bc2b-f9fed76eeec1}, !- Design Specification Outdoor Air Object Name
  MidriseApartment,                       !- Standards Building Type
  Apartment;                              !- Standards Space Type

OS:Rendering:Color,
  {73288233-8c41-4053-ba80-c6dbb4ba8442}, !- Handle
  Rendering Color 1,                      !- Name
  78,                                     !- Rendering Red Value
  167,                                    !- Rendering Green Value
  222;                                    !- Rendering Blue Value

OS:Schedule:Ruleset,
  {732e1533-7cc1-4771-acd6-cbda19287969}, !- Handle
  0800|1800|MidriseApartment|default|hoo, !- Name
  {db26cff9-768b-472d-802a-2b8e83f85319}, !- Schedule Type Limits Name
  {7fdd86ad-0394-41a4-bfdd-693d1c127ea5}, !- Default Day Schedule Name
  {102ee415-94bb-4f89-8bc2-5603d7c2b7ea}, !- Summer Design Day Schedule Name
  {79dc633a-96d4-47c6-ab81-e3ab6ad5a741}; !- Winter Design Day Schedule Name

OS:Schedule:Day,
  {7fdd86ad-0394-41a4-bfdd-693d1c127ea5}, !- Handle
  0800|1800|MidriseApartment|default|hoo Schedule Week Day, !- Name
  {db26cff9-768b-472d-802a-2b8e83f85319}, !- Schedule Type Limits Name
  ,                                       !- Interpolate to Timestep
  8,                                      !- Hour 1
  0,                                      !- Minute 1
  0,                                      !- Value Until Time 1
  18,                                     !- Hour 2
  0,                                      !- Minute 2
  1,                                      !- Value Until Time 2
  24,                                     !- Hour 3
  0,                                      !- Minute 3
  0;                                      !- Value Until Time 3

OS:Schedule:Day,
  {335d4252-920f-4f6a-bd45-2df7c2f1a518}, !- Handle
  Schedule Day 2,                         !- Name
  ,                                       !- Schedule Type Limits Name
  ,                                       !- Interpolate to Timestep
  24,                                     !- Hour 1
  0,                                      !- Minute 1
  0;                                      !- Value Until Time 1

OS:Schedule:Day,
  {79dc633a-96d4-47c6-ab81-e3ab6ad5a741}, !- Handle
  0800|1800|MidriseApartment|default|hoo Winter Design Day, !- Name
  {db26cff9-768b-472d-802a-2b8e83f85319}, !- Schedule Type Limits Name
  ,                                       !- Interpolate to Timestep
  24,                                     !- Hour 1
  0,                                      !- Minute 1
  0;                                      !- Value Until Time 1

OS:Schedule:Day,
  {bde4e437-bea9-4338-b8af-4b508e2ef282}, !- Handle
  Schedule Day 3,                         !- Name
  ,                                       !- Schedule Type Limits Name
  ,                                       !- Interpolate to Timestep
  24,                                     !- Hour 1
  0,                                      !- Minute 1
  0;                                      !- Value Until Time 1

OS:Schedule:Day,
  {102ee415-94bb-4f89-8bc2-5603d7c2b7ea}, !- Handle
  0800|1800|MidriseApartment|default|hoo Summer Design Day, !- Name
  {db26cff9-768b-472d-802a-2b8e83f85319}, !- Schedule Type Limits Name
  ,                                       !- Interpolate to Timestep
  24,                                     !- Hour 1
  0,                                      !- Minute 1
  1;                                      !- Value Until Time 1

OS:DefaultScheduleSet,
  {1c35fcc0-ce8d-4362-a66f-c77a661f92c3}, !- Handle
  Building Hours of Operation,            !- Name
  {732e1533-7cc1-4771-acd6-cbda19287969}, !- Hours of Operation Schedule Name
  ,                                       !- Number of People Schedule Name
  ,                                       !- People Activity Level Schedule Name
  ,                                       !- Lighting Schedule Name
  ,                                       !- Electric Equipment Schedule Name
  ,                                       !- Gas Equipment Schedule Name
  ,                                       !- Hot Water Equipment Schedule Name
  ,                                       !- Infiltration Schedule Name
  ,                                       !- Steam Equipment Schedule Name
  ;                                       !- Other Equipment Schedule Name

OS:ScheduleTypeLimits,
  {db26cff9-768b-472d-802a-2b8e83f85319}, !- Handle
  OnOff,                                  !- Name
  0,                                      !- Lower Limit Value {BasedOnField A4}
  1,                                      !- Upper Limit Value {BasedOnField A4}
  Discrete,                               !- Numeric Type
  Availability;                           !- Unit Type

OS:Schedule:Ruleset,
  {55c41563-1f8f-4cef-b359-5807983de8d3}, !- Handle
  0800|1800|MidriseApartment|default|hw_loop_temp, !- Name
  {348527da-5011-4723-a00e-b27608389da9}, !- Schedule Type Limits Name
  {cb7dd369-bda8-4944-bf20-9fb0e78e3f2a}, !- Default Day Schedule Name
  {01e785de-4ad8-4805-9cb2-44b400fae1a4}, !- Summer Design Day Schedule Name
  {5b3418d3-fed7-4ba4-831a-160b43fff076}; !- Winter Design Day Schedule Name

OS:ScheduleTypeLimits,
  {348527da-5011-4723-a00e-b27608389da9}, !- Handle
  Temperature Schedule Type Limits,       !- Name
  ,                                       !- Lower Limit Value {BasedOnField A4}
  ,                                       !- Upper Limit Value {BasedOnField A4}
  Continuous,                             !- Numeric Type
  Temperature;                            !- Unit Type

OS:Schedule:Day,
  {cb7dd369-bda8-4944-bf20-9fb0e78e3f2a}, !- Handle
  0800|1800|MidriseApartment|default|hw_loop_temp |default, !- Name
  {348527da-5011-4723-a00e-b27608389da9}, !- Schedule Type Limits Name
  ,                                       !- Interpolate to Timestep
  24,                                     !- Hour 1
  0,                                      !- Minute 1
  60.0000000000001;                       !- Value Until Time 1

OS:Schedule:Day,
  {01e785de-4ad8-4805-9cb2-44b400fae1a4}, !- Handle
  0800|1800|MidriseApartment|default|hw_loop_temp Summer Design Day, !- Name
  {348527da-5011-4723-a00e-b27608389da9}, !- Schedule Type Limits Name
  ,                                       !- Interpolate to Timestep
  24,                                     !- Hour 1
  0,                                      !- Minute 1
  60.0000000000001;                       !- Value Until Time 1

OS:Schedule:Day,
  {5b3418d3-fed7-4ba4-831a-160b43fff076}, !- Handle
  0800|1800|MidriseApartment|default|hw_loop_temp Winter Design Day, !- Name
  {348527da-5011-4723-a00e-b27608389da9}, !- Schedule Type Limits Name
  ,                                       !- Interpolate to Timestep
  24,                                     !- Hour 1
  0,                                      !- Minute 1
  60.0000000000001;                       !- Value Until Time 1

OS:Schedule:Ruleset,
  {0a0184e8-d5aa-480c-a53f-44043c1825e4}, !- Handle
  0800|1800|MidriseApartment|Office|infiltration, !- Name
  {cbe3cd48-5009-418f-9822-4ba311d0c782}, !- Schedule Type Limits Name
  {74a87af1-2fd2-4477-ad9d-c4d3a76abd15}, !- Default Day Schedule Name
  {eec0ee37-3d6c-4bfc-9512-6570ded840f5}, !- Summer Design Day Schedule Name
  {4bed601d-461a-4fa7-a6c0-1a1eb706b292}; !- Winter Design Day Schedule Name

OS:ScheduleTypeLimits,
  {cbe3cd48-5009-418f-9822-4ba311d0c782}, !- Handle
  Fraction Schedule Type Limits,          !- Name
  0,                                      !- Lower Limit Value {BasedOnField A4}
  1,                                      !- Upper Limit Value {BasedOnField A4}
  Continuous,                             !- Numeric Type
  Dimensionless;                          !- Unit Type

OS:Schedule:Day,
  {74a87af1-2fd2-4477-ad9d-c4d3a76abd15}, !- Handle
  0800|1800|MidriseApartment|Office|infiltration |default, !- Name
  {cbe3cd48-5009-418f-9822-4ba311d0c782}, !- Schedule Type Limits Name
  ,                                       !- Interpolate to Timestep
  8,                                      !- Hour 1
  0,                                      !- Minute 1
  1,                                      !- Value Until Time 1
  17,                                     !- Hour 2
  0,                                      !- Minute 2
  0.25,                                   !- Value Until Time 2
  24,                                     !- Hour 3
  0,                                      !- Minute 3
  1;                                      !- Value Until Time 3

OS:Schedule:Day,
  {eec0ee37-3d6c-4bfc-9512-6570ded840f5}, !- Handle
  0800|1800|MidriseApartment|Office|infiltration Summer Design Day, !- Name
  {cbe3cd48-5009-418f-9822-4ba311d0c782}, !- Schedule Type Limits Name
  ,                                       !- Interpolate to Timestep
  8,                                      !- Hour 1
  0,                                      !- Minute 1
  1,                                      !- Value Until Time 1
  17,                                     !- Hour 2
  0,                                      !- Minute 2
  0.25,                                   !- Value Until Time 2
  24,                                     !- Hour 3
  0,                                      !- Minute 3
  1;                                      !- Value Until Time 3

OS:Schedule:Day,
  {4bed601d-461a-4fa7-a6c0-1a1eb706b292}, !- Handle
  0800|1800|MidriseApartment|Office|infiltration Winter Design Day, !- Name
  {cbe3cd48-5009-418f-9822-4ba311d0c782}, !- Schedule Type Limits Name
  ,                                       !- Interpolate to Timestep
  8,                                      !- Hour 1
  0,                                      !- Minute 1
  1,                                      !- Value Until Time 1
  17,                                     !- Hour 2
  0,                                      !- Minute 2
  0.25,                                   !- Value Until Time 2
  24,                                     !- Hour 3
  0,                                      !- Minute 3
  1;                                      !- Value Until Time 3

OS:Schedule:Ruleset,
  {ff4bb840-3608-4721-9253-d1e9e1083f4f}, !- Handle
  0800|1800|MidriseApartment|default|clothing, !- Name
  {aad77c88-c90a-4894-84c1-69ddf5cd074c}, !- Schedule Type Limits Name
  {cef6c9ab-334e-44f1-9de9-0032df006875}, !- Default Day Schedule Name
  {d5479170-e10b-4659-a341-46301c90f3f1}, !- Summer Design Day Schedule Name
  {62133703-f5aa-4a3f-a5c0-3fc81c5b35ce}; !- Winter Design Day Schedule Name

OS:ScheduleTypeLimits,
  {aad77c88-c90a-4894-84c1-69ddf5cd074c}, !- Handle
  Dimensionless Schedule Type Limits,     !- Name
  ,                                       !- Lower Limit Value {BasedOnField A4}
  ,                                       !- Upper Limit Value {BasedOnField A4}
  Continuous,                             !- Numeric Type
  Dimensionless;                          !- Unit Type

OS:Schedule:Day,
  {cef6c9ab-334e-44f1-9de9-0032df006875}, !- Handle
  0800|1800|MidriseApartment|default|clothing |default, !- Name
  {aad77c88-c90a-4894-84c1-69ddf5cd074c}, !- Schedule Type Limits Name
  ,                                       !- Interpolate to Timestep
  24,                                     !- Hour 1
  0,                                      !- Minute 1
  0.9;                                    !- Value Until Time 1

OS:Schedule:Day,
  {d5479170-e10b-4659-a341-46301c90f3f1}, !- Handle
  0800|1800|MidriseApartment|default|clothing Summer Design Day, !- Name
  {aad77c88-c90a-4894-84c1-69ddf5cd074c}, !- Schedule Type Limits Name
  ,                                       !- Interpolate to Timestep
  24,                                     !- Hour 1
  0,                                      !- Minute 1
  0.9;                                    !- Value Until Time 1

OS:Schedule:Day,
  {62133703-f5aa-4a3f-a5c0-3fc81c5b35ce}, !- Handle
  0800|1800|MidriseApartment|default|clothing Winter Design Day, !- Name
  {aad77c88-c90a-4894-84c1-69ddf5cd074c}, !- Schedule Type Limits Name
  ,                                       !- Interpolate to Timestep
  24,                                     !- Hour 1
  0,                                      !- Minute 1
  0.9;                                    !- Value Until Time 1

OS:Schedule:Rule,
  {8b6fbd5d-530b-499d-a5d6-b12479246ee1}, !- Handle
  0800|1800|MidriseApartment|default|clothing |7/1-9/30|Mon/Tue/Wed/Thu/Fri/Sat/Sun Rule, !- Name
  {ff4bb840-3608-4721-9253-d1e9e1083f4f}, !- Schedule Ruleset Name
  0,                                      !- Rule Order
  {a151d1e3-0a87-46cc-827f-fe4131069269}, !- Day Schedule Name
  Yes,                                    !- Apply Sunday
  Yes,                                    !- Apply Monday
  Yes,                                    !- Apply Tuesday
  Yes,                                    !- Apply Wednesday
  Yes,                                    !- Apply Thursday
  Yes,                                    !- Apply Friday
  Yes,                                    !- Apply Saturday
  ,                                       !- Apply Holiday
  DateRange,                              !- Date Specification Type
  7,                                      !- Start Month
  1,                                      !- Start Day
  9,                                      !- End Month
  30;                                     !- End Day

OS:Schedule:Day,
  {a151d1e3-0a87-46cc-827f-fe4131069269}, !- Handle
  0800|1800|MidriseApartment|default|clothing |7/1-9/30|Mon/Tue/Wed/Thu/Fri/Sat/Sun, !- Name
  {aad77c88-c90a-4894-84c1-69ddf5cd074c}, !- Schedule Type Limits Name
  ,                                       !- Interpolate to Timestep
  24,                                     !- Hour 1
  0,                                      !- Minute 1
  0.7;                                    !- Value Until Time 1

OS:Schedule:Rule,
  {5346796a-8bbb-4004-a5f9-b8586af5f9c3}, !- Handle
  0800|1800|MidriseApartment|default|clothing |12/1-3/31|Mon/Tue/Wed/Thu/Fri/Sat/Sun Rule, !- Name
  {ff4bb840-3608-4721-9253-d1e9e1083f4f}, !- Schedule Ruleset Name
  1,                                      !- Rule Order
  {df555048-52e7-4888-b4e9-1f870720365e}, !- Day Schedule Name
  Yes,                                    !- Apply Sunday
  Yes,                                    !- Apply Monday
  Yes,                                    !- Apply Tuesday
  Yes,                                    !- Apply Wednesday
  Yes,                                    !- Apply Thursday
  Yes,                                    !- Apply Friday
  Yes,                                    !- Apply Saturday
  ,                                       !- Apply Holiday
  DateRange,                              !- Date Specification Type
  12,                                     !- Start Month
  1,                                      !- Start Day
  3,                                      !- End Month
  31;                                     !- End Day

OS:Schedule:Day,
  {df555048-52e7-4888-b4e9-1f870720365e}, !- Handle
  0800|1800|MidriseApartment|default|clothing |12/1-3/31|Mon/Tue/Wed/Thu/Fri/Sat/Sun, !- Name
  {aad77c88-c90a-4894-84c1-69ddf5cd074c}, !- Schedule Type Limits Name
  ,                                       !- Interpolate to Timestep
  24,                                     !- Hour 1
  0,                                      !- Minute 1
  1.3;                                    !- Value Until Time 1

OS:Schedule:Ruleset,
  {7df49348-bce7-4edd-bb58-11791c32b076}, !- Handle
  0800|1800|MidriseApartment|Apartment|gas_equip, !- Name
  {2075458c-1f20-45b7-bfa2-50e1a4203202}, !- Schedule Type Limits Name
  {0669c479-0ecf-4547-b3fd-31f8b2473309}, !- Default Day Schedule Name
  {7253fa6b-0123-4890-9f6a-434cba6e4293}, !- Summer Design Day Schedule Name
  {8be9fd89-0dc2-4bba-a45a-e44010c0870f}; !- Winter Design Day Schedule Name

OS:ScheduleTypeLimits,
  {2075458c-1f20-45b7-bfa2-50e1a4203202}, !- Handle
  Equipment Schedule Type Limits,         !- Name
  0,                                      !- Lower Limit Value {BasedOnField A4}
  1,                                      !- Upper Limit Value {BasedOnField A4}
  Continuous,                             !- Numeric Type
  Dimensionless;                          !- Unit Type

OS:Schedule:Day,
  {0669c479-0ecf-4547-b3fd-31f8b2473309}, !- Handle
  0800|1800|MidriseApartment|Apartment|gas_equip |default, !- Name
  {2075458c-1f20-45b7-bfa2-50e1a4203202}, !- Schedule Type Limits Name
  ,                                       !- Interpolate to Timestep
  1,                                      !- Hour 1
  0,                                      !- Minute 1
  0.45,                                   !- Value Until Time 1
  2,                                      !- Hour 2
  0,                                      !- Minute 2
  0.41,                                   !- Value Until Time 2
  3,                                      !- Hour 3
  0,                                      !- Minute 3
  0.39,                                   !- Value Until Time 3
  5,                                      !- Hour 4
  0,                                      !- Minute 4
  0.38,                                   !- Value Until Time 4
  6,                                      !- Hour 5
  0,                                      !- Minute 5
  0.43,                                   !- Value Until Time 5
  7,                                      !- Hour 6
  0,                                      !- Minute 6
  0.54,                                   !- Value Until Time 6
  8,                                      !- Hour 7
  0,                                      !- Minute 7
  0.65,                                   !- Value Until Time 7
  9,                                      !- Hour 8
  0,                                      !- Minute 8
  0.66,                                   !- Value Until Time 8
  10,                                     !- Hour 9
  0,                                      !- Minute 9
  0.67,                                   !- Value Until Time 9
  11,                                     !- Hour 10
  0,                                      !- Minute 10
  0.69,                                   !- Value Until Time 10
  12,                                     !- Hour 11
  0,                                      !- Minute 11
  0.7,                                    !- Value Until Time 11
  13,                                     !- Hour 12
  0,                                      !- Minute 12
  0.69,                                   !- Value Until Time 12
  14,                                     !- Hour 13
  0,                                      !- Minute 13
  0.66,                                   !- Value Until Time 13
  15,                                     !- Hour 14
  0,                                      !- Minute 14
  0.65,                                   !- Value Until Time 14
  16,                                     !- Hour 15
  0,                                      !- Minute 15
  0.68,                                   !- Value Until Time 15
  17,                                     !- Hour 16
  0,                                      !- Minute 16
  0.8,                                    !- Value Until Time 16
  19,                                     !- Hour 17
  0,                                      !- Minute 17
  1,                                      !- Value Until Time 17
  20,                                     !- Hour 18
  0,                                      !- Minute 18
  0.93,                                   !- Value Until Time 18
  21,                                     !- Hour 19
  0,                                      !- Minute 19
  0.89,                                   !- Value Until Time 19
  22,                                     !- Hour 20
  0,                                      !- Minute 20
  0.85,                                   !- Value Until Time 20
  23,                                     !- Hour 21
  0,                                      !- Minute 21
  0.71,                                   !- Value Until Time 21
  24,                                     !- Hour 22
  0,                                      !- Minute 22
  0.58;                                   !- Value Until Time 22

OS:Schedule:Day,
  {7253fa6b-0123-4890-9f6a-434cba6e4293}, !- Handle
  0800|1800|MidriseApartment|Apartment|gas_equip Summer Design Day, !- Name
  {2075458c-1f20-45b7-bfa2-50e1a4203202}, !- Schedule Type Limits Name
  ,                                       !- Interpolate to Timestep
  24,                                     !- Hour 1
  0,                                      !- Minute 1
  1;                                      !- Value Until Time 1

OS:Schedule:Day,
  {8be9fd89-0dc2-4bba-a45a-e44010c0870f}, !- Handle
  0800|1800|MidriseApartment|Apartment|gas_equip Winter Design Day, !- Name
  {2075458c-1f20-45b7-bfa2-50e1a4203202}, !- Schedule Type Limits Name
  ,                                       !- Interpolate to Timestep
  24,                                     !- Hour 1
  0,                                      !- Minute 1
  0.38;                                   !- Value Until Time 1

OS:Schedule:Ruleset,
  {5bf16754-418e-4840-9a65-b64b462d02b4}, !- Handle
  0800|1800|MidriseApartment|Office|elec_equip, !- Name
  {2075458c-1f20-45b7-bfa2-50e1a4203202}, !- Schedule Type Limits Name
  {9c0daf4e-2d35-4ba6-9836-5c3dd60c8ee2}, !- Default Day Schedule Name
  {e87f8bf9-5d51-45c4-840d-8952b9abd91d}, !- Summer Design Day Schedule Name
  {83c81327-4b93-45e8-878a-170b49d5e825}; !- Winter Design Day Schedule Name

OS:Schedule:Day,
  {9c0daf4e-2d35-4ba6-9836-5c3dd60c8ee2}, !- Handle
  0800|1800|MidriseApartment|Office|elec_equip |default, !- Name
  {2075458c-1f20-45b7-bfa2-50e1a4203202}, !- Schedule Type Limits Name
  ,                                       !- Interpolate to Timestep
  8,                                      !- Hour 1
  0,                                      !- Minute 1
  0,                                      !- Value Until Time 1
  12,                                     !- Hour 2