
OS:Version,
  {52418afb-3edf-40fc-b68a-f4609ea6f2bf}, !- Handle
  1.5.5;                                  !- Version Identifier

OS:ClimateZones,
  {135edfab-17e7-40db-a436-27d385a8cd6d}, !- Handle
  ,                                       !- Active Institution
  ,                                       !- Active Year
  ASHRAE,                                 !- Climate Zone Institution Name 1
  ANSI/ASHRAE Standard 169,               !- Climate Zone Document Name 1
  2006,                                   !- Climate Zone Document Year 1
  ,                                       !- Climate Zone Value 1
  CEC,                                    !- Climate Zone Institution Name 2
  California Climate Zone Descriptions,   !- Climate Zone Document Name 2
  1995,                                   !- Climate Zone Document Year 2
  ;                                       !- Climate Zone Value 2

OS:YearDescription,
  {513d8dda-86cb-442a-b01c-1f7f0e0ac70e}; !- Handle

OS:RadianceParameters,
  {270a96f1-3c86-4b75-a667-cdf22790e2c8}, !- Handle
  1,                                      !- Accumulated Rays per Record
  0,                                      !- Direct Threshold
  1,                                      !- Direct Certainty
  1,                                      !- Direct Jitter
  1,                                      !- Direct Pretest
  6,                                      !- Ambient Bounces VMX
  2,                                      !- Ambient Bounces DMX
  4050,                                   !- Ambient Divisions VMX
  512,                                    !- Ambient Divisions DMX
  256,                                    !- Ambient Supersamples
  0.001,                                  !- Limit Weight VMX
  0.001,                                  !- Limit Weight DMX
  500,                                    !- Klems Sampling Density
  146;                                    !- Sky Discretization Resolution

OS:SimulationControl,
  {2c487a4c-bac9-4ac5-b669-1e49d9da7c2b}, !- Handle
  ,                                       !- Do Zone Sizing Calculation
  ,                                       !- Do System Sizing Calculation
  ,                                       !- Do Plant Sizing Calculation
  No,                                     !- Run Simulation for Sizing Periods
  ,                                       !- Run Simulation for Weather File Run Periods
  0.04,                                   !- Loads Convergence Tolerance Value
  ,                                       !- Temperature Convergence Tolerance Value {deltaC}
  ,                                       !- Solar Distribution
  ,                                       !- Maximum Number of Warmup Days
  2;                                      !- Minimum Number of Warmup Days

OS:Sizing:Parameters,
  {dde5af6f-7923-4600-a28a-7556673a0266}, !- Handle
  1.25,                                   !- Heating Sizing Factor
  1.15;                                   !- Cooling Sizing Factor

OS:ProgramControl,
  {05027a99-f2b3-4aeb-afc6-1425fbb4371d}; !- Handle

OS:Timestep,
  {4ebc9f1e-4707-402e-9844-67eb1ffbd522}, !- Handle
  2;                                      !- Number of Timesteps per Hour

OS:OutputControl:ReportingTolerances,
  {65797aa2-06a9-45fe-b69d-bc6e060399d3}; !- Handle

OS:ConvergenceLimits,
  {9fc11aba-8822-4f3d-970c-46391ba4040d}; !- Handle

OS:ShadowCalculation,
  {ca758bea-4416-4626-9bba-3d8795c79bd6}, !- Handle
  7,                                      !- Calculation Frequency
  15000;                                  !- Maximum Figures in Shadow Overlap Calculations

OS:SurfaceConvectionAlgorithm:Inside,
  {aaabfc36-718a-4ab0-b622-f186ebb45230}, !- Handle
  TARP;                                   !- Algorithm

OS:SurfaceConvectionAlgorithm:Outside,
  {9a0a9f6f-4bbd-4b12-a121-9492a1fcd7d6}, !- Handle
  DOE-2;                                  !- Algorithm

OS:HeatBalanceAlgorithm,
  {9d93e563-e1e0-46d7-9e39-d1c8aceb7212}, !- Handle
  ConductionTransferFunction,             !- Algorithm
  200;                                    !- Surface Temperature Upper Limit {F}

OS:ZoneAirHeatBalanceAlgorithm,
  {8520d93e-310f-4696-9bcd-36228bfdd743}, !- Handle
  AnalyticalSolution;                     !- Algorithm

OS:ZoneAirContaminantBalance,
  {eb5fc3ae-fb22-4160-8fcb-3e3b22b000d3}; !- Handle

OS:ZoneCapacitanceMultiplier:ResearchSpecial,
  {4020ce4f-5a7a-4849-8028-8305d7b751b1}, !- Handle
  ,                                       !- Temperature Capacity Multiplier
  ,                                       !- Humidity Capacity Multiplier
  ;                                       !- Carbon Dioxide Capacity Multiplier

OS:RunPeriod,
  {28df894d-6af9-4fb8-8f56-df1753344aa3}, !- Handle
  Run Period 1,                           !- Name
  1,                                      !- Begin Month
  1,                                      !- Begin Day of Month
  12,                                     !- End Month
  31,                                     !- End Day of Month
  ,                                       !- Use Weather File Holidays and Special Days
  ,                                       !- Use Weather File Daylight Saving Period
  ,                                       !- Apply Weekend Holiday Rule
  ,                                       !- Use Weather File Rain Indicators
  ,                                       !- Use Weather File Snow Indicators
  ;                                       !- Number of Times Runperiod to be Repeated

OS:Building,
  {bf305633-c5a1-4881-9edf-ca5e1a8e1274}, !- Handle
  Building 1,                             !- Name
  ,                                       !- Building Sector Type
  ,                                       !- North Axis {deg}
  ,                                       !- Nominal Floor to Floor Height {m}
  ,                                       !- Space Type Name
  ,                                       !- Default Construction Set Name
  {89103e5b-2b8f-4b99-84c9-0bd0857d0da7}, !- Default Schedule Set Name
  ,                                       !- Standards Number of Stories
  ,                                       !- Standards Number of Above Ground Stories
  MidriseApartment;                       !- Standards Building Type

OS:LifeCycleCost:Parameters,
  {231cf8a0-f0e7-4251-a99f-11f0d464e661}, !- Handle
  FEMP,                                   !- Analysis Type
  ,                                       !- Discounting Convention
  ,                                       !- Inflation Approach
  ,                                       !- Real Discount Rate
  ,                                       !- Nominal Discount Rate
  ,                                       !- Inflation
  ,                                       !- Base Date Month
  ,                                       !- Base Date Year
  ,                                       !- Service Date Month
  ,                                       !- Service Date Year
  ,                                       !- Length of Study Period in Years
  ,                                       !- Tax Rate
  ,                                       !- Depreciation Method
  Yes;                                    !- Use NIST Fuel Escalation Rates

OS:Facility,
  {3ba8e45b-b833-44eb-a723-ea6c3946dc96}; !- Handle

OS:SpaceType,
  {17ea64c4-a29d-4625-8f99-a81ea37861f6}, !- Handle
  MidriseApartment|Apartment|DOE Ref 2004|ASHRAE 169-2006-5A, !- Name
  {d4a76c32-52de-403b-831d-5a6edc0799b2}, !- Default Construction Set Name
  {302d2dc8-d031-43d2-b2b5-cd1b1a9993df}, !- Default Schedule Set Name
  {a6303543-b170-4b16-80c4-83777912bb47}, !- Group Rendering Name
  {47a6a6af-b42d-433c-8e07-720df97ed9a4}, !- Design Specification Outdoor Air Object Name
  MidriseApartment,                       !- Standards Building Type
  Apartment;                              !- Standards Space Type

OS:Rendering:Color,
  {a6303543-b170-4b16-80c4-83777912bb47}, !- Handle
  Rendering Color 1,                      !- Name
  78,                                     !- Rendering Red Value
  167,                                    !- Rendering Green Value
  222;                                    !- Rendering Blue Value

OS:Schedule:Ruleset,
  {fde43e89-390c-4715-a80e-45f3c0529c57}, !- Handle
  0800|1800|MidriseApartment|default|hoo, !- Name
  {553c8093-a196-4c9c-89d7-763533c05bba}, !- Schedule Type Limits Name
  {b37f509c-8cb4-435b-a637-0f04f7145613}, !- Default Day Schedule Name
  {9a58883d-903d-45d9-a8f6-f9dcb653239a}, !- Summer Design Day Schedule Name
  {148e04d3-13b6-444d-bdda-53705fbe37b4}; !- Winter Design Day Schedule Name

OS:Schedule:Day,
  {b37f509c-8cb4-435b-a637-0f04f7145613}, !- Handle
  0800|1800|MidriseApartment|default|hoo Schedule Week Day, !- Name
  {553c8093-a196-4c9c-89d7-763533c05bba}, !- Schedule Type Limits Name
  ,                                       !- Interpolate to Timestep
  8,                                      !- Hour 1
  0,                                      !- Minute 1
  0,                                      !- Value Until Time 1
  18,                                     !- Hour 2
  0,                                      !- Minute 2
  1,                                      !- Value Until Time 2
  24,                                     !- Hour 3
  0,                                      !- Minute 3
  0;                                      !- Value Until Time 3

OS:Schedule:Day,
  {844976ed-4a6d-4fbf-9cd5-809e8ba9781a}, !- Handle
  Schedule Day 2,                         !- Name
  ,                                       !- Schedule Type Limits Name
  ,                                       !- Interpolate to Timestep
  24,                                     !- Hour 1
  0,                                      !- Minute 1
  0;                                      !- Value Until Time 1

OS:Schedule:Day,
  {148e04d3-13b6-444d-bdda-53705fbe37b4}, !- Handle
  0800|1800|MidriseApartment|default|hoo Winter Design Day, !- Name
  {553c8093-a196-4c9c-89d7-763533c05bba}, !- Schedule Type Limits Name
  ,                                       !- Interpolate to Timestep
  24,                                     !- Hour 1
  0,                                      !- Minute 1
  0;                                      !- Value Until Time 1

OS:Schedule:Day,
  {1fe04c09-acea-4c4a-b0cb-837da504f6b8}, !- Handle
  Schedule Day 3,                         !- Name
  ,                                       !- Schedule Type Limits Name
  ,                                       !- Interpolate to Timestep
  24,                                     !- Hour 1
  0,                                      !- Minute 1
  0;                                      !- Value Until Time 1

OS:Schedule:Day,
  {9a58883d-903d-45d9-a8f6-f9dcb653239a}, !- Handle
  0800|1800|MidriseApartment|default|hoo Summer Design Day, !- Name
  {553c8093-a196-4c9c-89d7-763533c05bba}, !- Schedule Type Limits Name
  ,                                       !- Interpolate to Timestep
  24,                                     !- Hour 1
  0,                                      !- Minute 1
  1;                                      !- Value Until Time 1

OS:DefaultScheduleSet,
  {89103e5b-2b8f-4b99-84c9-0bd0857d0da7}, !- Handle
  Building Hours of Operation,            !- Name
  {fde43e89-390c-4715-a80e-45f3c0529c57}, !- Hours of Operation Schedule Name
  ,                                       !- Number of People Schedule Name
  ,                                       !- People Activity Level Schedule Name
  ,                                       !- Lighting Schedule Name
  ,                                       !- Electric Equipment Schedule Name
  ,                                       !- Gas Equipment Schedule Name
  ,                                       !- Hot Water Equipment Schedule Name
  ,                                       !- Infiltration Schedule Name
  ,                                       !- Steam Equipment Schedule Name
  ;                                       !- Other Equipment Schedule Name

OS:ScheduleTypeLimits,
  {553c8093-a196-4c9c-89d7-763533c05bba}, !- Handle
  OnOff,                                  !- Name
  0,                                      !- Lower Limit Value {BasedOnField A4}
  1,                                      !- Upper Limit Value {BasedOnField A4}
  Discrete,                               !- Numeric Type
  Availability;                           !- Unit Type

OS:Schedule:Ruleset,
  {35e68954-8649-4d87-95c0-f5501fe9fa44}, !- Handle
  0800|1800|MidriseApartment|xOffice|lighting, !- Name
  {efaafa9b-1e06-4de1-915b-c4983a9b46d3}, !- Schedule Type Limits Name
  {169a1fbc-4978-4894-989d-9df7e3fba3f5}, !- Default Day Schedule Name
  {0708a7e2-f02e-48a5-b518-bf9b699c7896}, !- Summer Design Day Schedule Name
  {96d1ea16-700c-4000-b381-99818ef6ea87}; !- Winter Design Day Schedule Name

OS:ScheduleTypeLimits,
  {efaafa9b-1e06-4de1-915b-c4983a9b46d3}, !- Handle
  Lights Schedule Type Limits,            !- Name
  0,                                      !- Lower Limit Value {BasedOnField A4}
  1,                                      !- Upper Limit Value {BasedOnField A4}
  Continuous,                             !- Numeric Type
  Dimensionless;                          !- Unit Type

OS:Schedule:Day,
  {169a1fbc-4978-4894-989d-9df7e3fba3f5}, !- Handle
  0800|1800|MidriseApartment|xOffice|lighting |default, !- Name
  {efaafa9b-1e06-4de1-915b-c4983a9b46d3}, !- Schedule Type Limits Name
  ,                                       !- Interpolate to Timestep
  8,                                      !- Hour 1
  0,                                      !- Minute 1
  0.18,                                   !- Value Until Time 1
  12,                                     !- Hour 2
  0,                                      !- Minute 2
  0.9,                                    !- Value Until Time 2
  13,                                     !- Hour 3
  0,                                      !- Minute 3
  0.8,                                    !- Value Until Time 3
  17,                                     !- Hour 4
  0,                                      !- Minute 4
  0.9,                                    !- Value Until Time 4
  24,                                     !- Hour 5
  0,                                      !- Minute 5
  0.18;                                   !- Value Until Time 5

OS:Schedule:Day,
  {0708a7e2-f02e-48a5-b518-bf9b699c7896}, !- Handle
  0800|1800|MidriseApartment|xOffice|lighting Summer Design Day, !- Name
  {efaafa9b-1e06-4de1-915b-c4983a9b46d3}, !- Schedule Type Limits Name
  ,                                       !- Interpolate to Timestep
  8,                                      !- Hour 1
  0,                                      !- Minute 1
  0.18,                                   !- Value Until Time 1
  17,                                     !- Hour 2
  0,                                      !- Minute 2
  1,                                      !- Value Until Time 2
  24,                                     !- Hour 3
  0,                                      !- Minute 3
  0.18;                                   !- Value Until Time 3

OS:Schedule:Day,
  {96d1ea16-700c-4000-b381-99818ef6ea87}, !- Handle
  0800|1800|MidriseApartment|xOffice|lighting Winter Design Day, !- Name
  {efaafa9b-1e06-4de1-915b-c4983a9b46d3}, !- Schedule Type Limits Name
  ,                                       !- Interpolate to Timestep
  24,                                     !- Hour 1
  0,                                      !- Minute 1
  0.18;                                   !- Value Until Time 1

OS:Schedule:Ruleset,
  {bbfe8429-adee-443e-88c1-1fac4ff721b0}, !- Handle
  0800|1800|MidriseApartment|default|hw_loop_temp, !- Name
  {9b57e3fb-67b4-4687-9350-c631e5e5729b}, !- Schedule Type Limits Name
  {1d0061a0-2a92-4d20-ab2e-064b57b04e94}, !- Default Day Schedule Name
  {726dd01c-dbb3-48db-a1a5-7c317e0e2a81}, !- Summer Design Day Schedule Name
  {5dcafe57-91a7-4840-b434-6323d084d82a}; !- Winter Design Day Schedule Name

OS:ScheduleTypeLimits,
  {9b57e3fb-67b4-4687-9350-c631e5e5729b}, !- Handle
  Temperature Schedule Type Limits,       !- Name
  ,                                       !- Lower Limit Value {BasedOnField A4}
  ,                                       !- Upper Limit Value {BasedOnField A4}
  Continuous,                             !- Numeric Type
  Temperature;                            !- Unit Type

OS:Schedule:Day,
  {1d0061a0-2a92-4d20-ab2e-064b57b04e94}, !- Handle
  0800|1800|MidriseApartment|default|hw_loop_temp |default, !- Name
  {9b57e3fb-67b4-4687-9350-c631e5e5729b}, !- Schedule Type Limits Name
  ,                                       !- Interpolate to Timestep
  24,                                     !- Hour 1
  0,                                      !- Minute 1
  60.0000000000001;                       !- Value Until Time 1

OS:Schedule:Day,
  {726dd01c-dbb3-48db-a1a5-7c317e0e2a81}, !- Handle
  0800|1800|MidriseApartment|default|hw_loop_temp Summer Design Day, !- Name
  {9b57e3fb-67b4-4687-9350-c631e5e5729b}, !- Schedule Type Limits Name
  ,                                       !- Interpolate to Timestep
  24,                                     !- Hour 1
  0,                                      !- Minute 1
  60.0000000000001;                       !- Value Until Time 1

OS:Schedule:Day,
  {5dcafe57-91a7-4840-b434-6323d084d82a}, !- Handle
  0800|1800|MidriseApartment|default|hw_loop_temp Winter Design Day, !- Name
  {9b57e3fb-67b4-4687-9350-c631e5e5729b}, !- Schedule Type Limits Name
  ,                                       !- Interpolate to Timestep
  24,                                     !- Hour 1
  0,                                      !- Minute 1
  60.0000000000001;                       !- Value Until Time 1

OS:Schedule:Ruleset,
  {2948f136-4754-4899-ae20-3876f2358bfc}, !- Handle
  0800|1800|MidriseApartment|default|ext_lighting, !- Name
  {efaafa9b-1e06-4de1-915b-c4983a9b46d3}, !- Schedule Type Limits Name
  {695ce237-b72b-44b2-b90d-913e77baea52}, !- Default Day Schedule Name
  {280b8cfc-cf70-45c0-ba0a-43310562d687}, !- Summer Design Day Schedule Name
  {5aebf2f0-bb14-4539-9334-846218d33099}; !- Winter Design Day Schedule Name

OS:Schedule:Day,
  {695ce237-b72b-44b2-b90d-913e77baea52}, !- Handle
  0800|1800|MidriseApartment|default|ext_lighting |default, !- Name
  {efaafa9b-1e06-4de1-915b-c4983a9b46d3}, !- Schedule Type Limits Name
  ,                                       !- Interpolate to Timestep
  24,                                     !- Hour 1
  0,                                      !- Minute 1
  1;                                      !- Value Until Time 1

OS:Schedule:Day,
  {280b8cfc-cf70-45c0-ba0a-43310562d687}, !- Handle
  0800|1800|MidriseApartment|default|ext_lighting Summer Design Day, !- Name
  {efaafa9b-1e06-4de1-915b-c4983a9b46d3}, !- Schedule Type Limits Name
  ,                                       !- Interpolate to Timestep
  24,                                     !- Hour 1
  0,                                      !- Minute 1
  1;                                      !- Value Until Time 1

OS:Schedule:Day,
  {5aebf2f0-bb14-4539-9334-846218d33099}, !- Handle
  0800|1800|MidriseApartment|default|ext_lighting Winter Design Day, !- Name
  {efaafa9b-1e06-4de1-915b-c4983a9b46d3}, !- Schedule Type Limits Name
  ,                                       !- Interpolate to Timestep
  24,                                     !- Hour 1
  0,                                      !- Minute 1
  1;                                      !- Value Until Time 1

OS:Schedule:Ruleset,
  {e9307de1-84d8-4cd4-828f-53715d9b83a1}, !- Handle
  0800|1800|MidriseApartment|Apartment|hvac, !- Name
  {8dddcfe9-9d2a-4a06-a90e-96f6473ef0f0}, !- Schedule Type Limits Name
  {8b79875a-c938-4a42-9103-3181ebac8a98}, !- Default Day Schedule Name
  {f6cf80a5-6c77-4112-bee2-26e13c2c30e9}, !- Summer Design Day Schedule Name
  {cec0aea1-77c0-4d77-a7c1-49b4a037133c}; !- Winter Design Day Schedule Name

OS:ScheduleTypeLimits,
  {8dddcfe9-9d2a-4a06-a90e-96f6473ef0f0}, !- Handle
  HVAC Operation Schedule Type Limits,    !- Name
  0,                                      !- Lower Limit Value {BasedOnField A4}
  1,                                      !- Upper Limit Value {BasedOnField A4}
  Discrete,                               !- Numeric Type
  Availability;                           !- Unit Type

OS:Schedule:Day,
  {8b79875a-c938-4a42-9103-3181ebac8a98}, !- Handle
  0800|1800|MidriseApartment|Apartment|hvac |default, !- Name
  {8dddcfe9-9d2a-4a06-a90e-96f6473ef0f0}, !- Schedule Type Limits Name
  ,                                       !- Interpolate to Timestep
  24,                                     !- Hour 1
  0,                                      !- Minute 1
  1;                                      !- Value Until Time 1

OS:Schedule:Day,
  {f6cf80a5-6c77-4112-bee2-26e13c2c30e9}, !- Handle
  0800|1800|MidriseApartment|Apartment|hvac Summer Design Day, !- Name
  {8dddcfe9-9d2a-4a06-a90e-96f6473ef0f0}, !- Schedule Type Limits Name
  ,                                       !- Interpolate to Timestep
  24,                                     !- Hour 1
  0,                                      !- Minute 1
  1;                                      !- Value Until Time 1

OS:Schedule:Day,
  {cec0aea1-77c0-4d77-a7c1-49b4a037133c}, !- Handle
  0800|1800|MidriseApartment|Apartment|hvac Winter Design Day, !- Name
  {8dddcfe9-9d2a-4a06-a90e-96f6473ef0f0}, !- Schedule Type Limits Name
  ,                                       !- Interpolate to Timestep
  24,                                     !- Hour 1
  0,                                      !- Minute 1
  1;                                      !- Value Until Time 1

OS:Schedule:Ruleset,
  {f489f9bd-57a3-4921-b081-fe92a38e3f10}, !- Handle
  0800|1800|MidriseApartment|default|htg_setpoint, !- Name
  {0fd4c6ec-ddcf-4bdb-a998-b687507d9f45}, !- Schedule Type Limits Name
  {41540229-2240-4c60-9e16-aff393c13447}, !- Default Day Schedule Name
  {cb4351ec-5344-47e1-8b3c-a61b9d8e73ed}, !- Summer Design Day Schedule Name
  {cbe7c778-6b8d-4d9a-9127-8c47beffb59f}; !- Winter Design Day Schedule Name

OS:ScheduleTypeLimits,
  {0fd4c6ec-ddcf-4bdb-a998-b687507d9f45}, !- Handle
  Thermostat Heating Setpoint Schedule Type Limits, !- Name
  0,                                      !- Lower Limit Value {BasedOnField A4}
  100,                                    !- Upper Limit Value {BasedOnField A4}
  Continuous,                             !- Numeric Type
  Temperature;                            !- Unit Type

OS:Schedule:Day,
  {41540229-2240-4c60-9e16-aff393c13447}, !- Handle
  0800|1800|MidriseApartment|default|htg_setpoint |default, !- Name
  {0fd4c6ec-ddcf-4bdb-a998-b687507d9f45}, !- Schedule Type Limits Name
  ,                                       !- Interpolate to Timestep
  24,                                     !- Hour 1
  0,                                      !- Minute 1
  21.1111111111111;                       !- Value Until Time 1

OS:Schedule:Day,
  {cb4351ec-5344-47e1-8b3c-a61b9d8e73ed}, !- Handle
  0800|1800|MidriseApartment|default|htg_setpoint Summer Design Day, !- Name
  {0fd4c6ec-ddcf-4bdb-a998-b687507d9f45}, !- Schedule Type Limits Name
  ,                                       !- Interpolate to Timestep
  24,                                     !- Hour 1
  0,                                      !- Minute 1
  21.1111111111111;                       !- Value Until Time 1

OS:Schedule:Day,
  {cbe7c778-6b8d-4d9a-9127-8c47beffb59f}, !- Handle
  0800|1800|MidriseApartment|default|htg_setpoint Winter Design Day, !- Name
  {0fd4c6ec-ddcf-4bdb-a998-b687507d9f45}, !- Schedule Type Limits Name
  ,                                       !- Interpolate to Timestep
  24,                                     !- Hour 1
  0,                                      !- Minute 1
  21.1111111111111;                       !- Value Until Time 1

OS:Schedule:Ruleset,
  {47280df7-fbc9-4df5-b4e4-4e753b3a922f}, !- Handle
  0800|1800|MidriseApartment|default|activity, !- Name
  {b5942b16-a6f6-44c5-a433-ed4fb1d31f4e}, !- Schedule Type Limits Name
  {eaadc717-6986-4100-99d3-63b0ba4e3306}, !- Default Day Schedule Name
  {c725b119-4ea2-48cc-9632-0157961a532d}, !- Summer Design Day Schedule Name
  {e17ebb9c-54f3-42de-b328-a2fe6918256e}; !- Winter Design Day Schedule Name

OS:ScheduleTypeLimits,
  {b5942b16-a6f6-44c5-a433-ed4fb1d31f4e}, !- Handle
  People Activity Type Limits,            !- Name
  0,                                      !- Lower Limit Value {BasedOnField A4}
  ,                                       !- Upper Limit Value {BasedOnField A4}
  Continuous,                             !- Numeric Type
  ActivityLevel;                          !- Unit Type

OS:Schedule:Day,
  {eaadc717-6986-4100-99d3-63b0ba4e3306}, !- Handle
  0800|1800|MidriseApartment|default|activity |default, !- Name
  {b5942b16-a6f6-44c5-a433-ed4fb1d31f4e}, !- Schedule Type Limits Name
  ,                                       !- Interpolate to Timestep
  24,                                     !- Hour 1
  0,                                      !- Minute 1
  120;                                    !- Value Until Time 1

OS:Schedule:Day,
  {c725b119-4ea2-48cc-9632-0157961a532d}, !- Handle
  0800|1800|MidriseApartment|default|activity Summer Design Day, !- Name
  {b5942b16-a6f6-44c5-a433-ed4fb1d31f4e}, !- Schedule Type Limits Name
  ,                                       !- Interpolate to Timestep
  24,                                     !- Hour 1
  0,                                      !- Minute 1
  120;                                    !- Value Until Time 1

OS:Schedule:Day,
  {e17ebb9c-54f3-42de-b328-a2fe6918256e}, !- Handle
  0800|1800|MidriseApartment|default|activity Winter Design Day, !- Name
  {b5942b16-a6f6-44c5-a433-ed4fb1d31f4e}, !- Schedule Type Limits Name
  ,                                       !- Interpolate to Timestep
  24,                                     !- Hour 1
  0,                                      !- Minute 1
  120;                                    !- Value Until Time 1

OS:Schedule:Ruleset,
  {e95d82c0-406f-4a0b-80d5-b98c0732b1d8}, !- Handle
  0800|1800|MidriseApartment|Office|occ,  !- Name
  {b8fbfa19-ab36-42c6-8d37-b90409b662d0}, !- Schedule Type Limits Name
  {3a8a0864-d8f8-41bd-97f5-654ae4b8a439}, !- Default Day Schedule Name
  {b15f605d-b924-404c-9ba0-e8e38f67818f}, !- Summer Design Day Schedule Name
  {59f5e6fc-66de-4f08-b336-b14734dfac0c}; !- Winter Design Day Schedule Name

OS:ScheduleTypeLimits,
  {b8fbfa19-ab36-42c6-8d37-b90409b662d0}, !- Handle
  Occupancy Schedule Type Limits,         !- Name
  0,                                      !- Lower Limit Value {BasedOnField A4}
  1,                                      !- Upper Limit Value {BasedOnField A4}
  Continuous,                             !- Numeric Type
  Dimensionless;                          !- Unit Type

OS:Schedule:Day,
  {3a8a0864-d8f8-41bd-97f5-654ae4b8a439}, !- Handle
  0800|1800|MidriseApartment|Office|occ |default, !- Name
  {b8fbfa19-ab36-42c6-8d37-b90409b662d0}, !- Schedule Type Limits Name
  ,                                       !- Interpolate to Timestep
  8,                                      !- Hour 1
  0,                                      !- Minute 1
  0,                                      !- Value Until Time 1
  9,                                      !- Hour 2
  0,                                      !- Minute 2
  0.87,                                   !- Value Until Time 2
  9,                                      !- Hour 3
  30,                                     !- Minute 3
  0.54,                                   !- Value Until Time 3
  10,                                     !- Hour 4
  0,                                      !- Minute 4
  0.34,                                   !- Value Until Time 4
  11,                                     !- Hour 5
  0,                                      !- Minute 5
  0.87,                                   !- Value Until Time 5
  11,                                     !- Hour 6
  30,                                     !- Minute 6
  0.54,                                   !- Value Until Time 6
  12,                                     !- Hour 7
  0,                                      !- Minute 7
  0.34,                                   !- Value Until Time 7
  12,                                     !- Hour 8
  30,                                     !- Minute 8
  0.76,                                   !- Value Until Time 8
  13,                                     !- Hour 9
  0,                                      !- Minute 9
  0.91,                                   !- Value Until Time 9
  15,                                     !- Hour 10
  30,                                     !- Minute 10
  0.95,                                   !- Value Until Time 10
  16,                                     !- Hour 11
  0,                                      !- Minute 11
  0.19,                                   !- Value Until Time 11
  16,                                     !- Hour 12
  30,                                     !- Minute 12
  0.14,                                   !- Value Until Time 12
  17,                                     !- Hour 13
  0,                                      !- Minute 13
  0.13,                                   !- Value Until Time 13
  24,                                     !- Hour 14
  0,                                      !- Minute 14
  0;                                      !- Value Until Time 14

OS:Schedule:Day,
  {b15f605d-b924-404c-9ba0-e8e38f67818f}, !- Handle
  0800|1800|MidriseApartment|Office|occ Summer Design Day, !- Name
  {b8fbfa19-ab36-42c6-8d37-b90409b662d0}, !- Schedule Type Limits Name
  ,                                       !- Interpolate to Timestep