
OS:Version,
  {e8ab5f21-4d19-4df2-8c33-f428efa0236a}, !- Handle
  1.5.5;                                  !- Version Identifier

OS:ClimateZones,
  {135edfab-17e7-40db-a436-27d385a8cd6d}, !- Handle
  ,                                       !- Active Institution
  ,                                       !- Active Year
  ASHRAE,                                 !- Climate Zone Institution Name 1
  ANSI/ASHRAE Standard 169,               !- Climate Zone Document Name 1
  2006,                                   !- Climate Zone Document Year 1
  ,                                       !- Climate Zone Value 1
  CEC,                                    !- Climate Zone Institution Name 2
  California Climate Zone Descriptions,   !- Climate Zone Document Name 2
  1995,                                   !- Climate Zone Document Year 2
  ;                                       !- Climate Zone Value 2

OS:YearDescription,
  {513d8dda-86cb-442a-b01c-1f7f0e0ac70e}; !- Handle

OS:RadianceParameters,
  {270a96f1-3c86-4b75-a667-cdf22790e2c8}, !- Handle
  1,                                      !- Accumulated Rays per Record
  0,                                      !- Direct Threshold
  1,                                      !- Direct Certainty
  1,                                      !- Direct Jitter
  1,                                      !- Direct Pretest
  6,                                      !- Ambient Bounces VMX
  2,                                      !- Ambient Bounces DMX
  4050,                                   !- Ambient Divisions VMX
  512,                                    !- Ambient Divisions DMX
  256,                                    !- Ambient Supersamples
  0.001,                                  !- Limit Weight VMX
  0.001,                                  !- Limit Weight DMX
  500,                                    !- Klems Sampling Density
  146;                                    !- Sky Discretization Resolution

OS:SimulationControl,
  {2c487a4c-bac9-4ac5-b669-1e49d9da7c2b}, !- Handle
  ,                                       !- Do Zone Sizing Calculation
  ,                                       !- Do System Sizing Calculation
  ,                                       !- Do Plant Sizing Calculation
  No,                                     !- Run Simulation for Sizing Periods
  ,                                       !- Run Simulation for Weather File Run Periods
  0.04,                                   !- Loads Convergence Tolerance Value
  ,                                       !- Temperature Convergence Tolerance Value {deltaC}
  ,                                       !- Solar Distribution
  ,                                       !- Maximum Number of Warmup Days
  2;                                      !- Minimum Number of Warmup Days

OS:Sizing:Parameters,
  {dde5af6f-7923-4600-a28a-7556673a0266}, !- Handle
  1.25,                                   !- Heating Sizing Factor
  1.15;                                   !- Cooling Sizing Factor

OS:ProgramControl,
  {05027a99-f2b3-4aeb-afc6-1425fbb4371d}; !- Handle

OS:Timestep,
  {4ebc9f1e-4707-402e-9844-67eb1ffbd522}, !- Handle
  2;                                      !- Number of Timesteps per Hour

OS:OutputControl:ReportingTolerances,
  {65797aa2-06a9-45fe-b69d-bc6e060399d3}; !- Handle

OS:ConvergenceLimits,
  {9fc11aba-8822-4f3d-970c-46391ba4040d}; !- Handle

OS:ShadowCalculation,
  {ca758bea-4416-4626-9bba-3d8795c79bd6}, !- Handle
  7,                                      !- Calculation Frequency
  15000;                                  !- Maximum Figures in Shadow Overlap Calculations

OS:SurfaceConvectionAlgorithm:Inside,
  {aaabfc36-718a-4ab0-b622-f186ebb45230}, !- Handle
  TARP;                                   !- Algorithm

OS:SurfaceConvectionAlgorithm:Outside,
  {9a0a9f6f-4bbd-4b12-a121-9492a1fcd7d6}, !- Handle
  DOE-2;                                  !- Algorithm

OS:HeatBalanceAlgorithm,
  {9d93e563-e1e0-46d7-9e39-d1c8aceb7212}, !- Handle
  ConductionTransferFunction,             !- Algorithm
  200;                                    !- Surface Temperature Upper Limit {F}

OS:ZoneAirHeatBalanceAlgorithm,
  {8520d93e-310f-4696-9bcd-36228bfdd743}, !- Handle
  AnalyticalSolution;                     !- Algorithm

OS:ZoneAirContaminantBalance,
  {eb5fc3ae-fb22-4160-8fcb-3e3b22b000d3}; !- Handle

OS:ZoneCapacitanceMultiplier:ResearchSpecial,
  {4020ce4f-5a7a-4849-8028-8305d7b751b1}, !- Handle
  ,                                       !- Temperature Capacity Multiplier
  ,                                       !- Humidity Capacity Multiplier
  ;                                       !- Carbon Dioxide Capacity Multiplier

OS:RunPeriod,
  {28df894d-6af9-4fb8-8f56-df1753344aa3}, !- Handle
  Run Period 1,                           !- Name
  1,                                      !- Begin Month
  1,                                      !- Begin Day of Month
  12,                                     !- End Month
  31,                                     !- End Day of Month
  ,                                       !- Use Weather File Holidays and Special Days
  ,                                       !- Use Weather File Daylight Saving Period
  ,                                       !- Apply Weekend Holiday Rule
  ,                                       !- Use Weather File Rain Indicators
  ,                                       !- Use Weather File Snow Indicators
  ;                                       !- Number of Times Runperiod to be Repeated

OS:Building,
  {bf305633-c5a1-4881-9edf-ca5e1a8e1274}, !- Handle
  Building 1,                             !- Name
  ,                                       !- Building Sector Type
  ,                                       !- North Axis {deg}
  ,                                       !- Nominal Floor to Floor Height {m}
  ,                                       !- Space Type Name
  ,                                       !- Default Construction Set Name
  {d7e84373-8c1a-463f-a5ad-9fcf1ca4ff53}, !- Default Schedule Set Name
  ,                                       !- Standards Number of Stories
  ,                                       !- Standards Number of Above Ground Stories
  MidriseApartment;                       !- Standards Building Type

OS:LifeCycleCost:Parameters,
  {231cf8a0-f0e7-4251-a99f-11f0d464e661}, !- Handle
  FEMP,                                   !- Analysis Type
  ,                                       !- Discounting Convention
  ,                                       !- Inflation Approach
  ,                                       !- Real Discount Rate
  ,                                       !- Nominal Discount Rate
  ,                                       !- Inflation
  ,                                       !- Base Date Month
  ,                                       !- Base Date Year
  ,                                       !- Service Date Month
  ,                                       !- Service Date Year
  ,                                       !- Length of Study Period in Years
  ,                                       !- Tax Rate
  ,                                       !- Depreciation Method
  Yes;                                    !- Use NIST Fuel Escalation Rates

OS:Facility,
  {3ba8e45b-b833-44eb-a723-ea6c3946dc96}; !- Handle

OS:SpaceType,
  {44f6035f-9917-462c-9b0c-fec8d87e2eea}, !- Handle
  MidriseApartment|Apartment|DOE Ref 1980-2004|ASHRAE 169-2006-5A, !- Name
  {ae7bc02a-3f89-49fb-8495-976b3a56ba35}, !- Default Construction Set Name
  {10794df5-7faf-46a3-970e-5aa37e789178}, !- Default Schedule Set Name
  {decb9f34-f1c6-41b8-b250-425a3b0f6c85}, !- Group Rendering Name
  {ed9f80c1-fea9-4790-8dea-58c0c3644a45}, !- Design Specification Outdoor Air Object Name
  MidriseApartment,                       !- Standards Building Type
  Apartment;                              !- Standards Space Type

OS:Rendering:Color,
  {decb9f34-f1c6-41b8-b250-425a3b0f6c85}, !- Handle
  Rendering Color 1,                      !- Name
  78,                                     !- Rendering Red Value
  167,                                    !- Rendering Green Value
  222;                                    !- Rendering Blue Value

OS:Schedule:Ruleset,
  {cca1a98b-fb44-4ee8-908e-d8f2bd5e1fa2}, !- Handle
  0800|1800|MidriseApartment|default|hoo, !- Name
  {72f05275-bed1-4ca9-9997-25469b9e95a4}, !- Schedule Type Limits Name
  {ddeb514a-66ad-4e89-a646-46c80785ffed}, !- Default Day Schedule Name
  {68e5a96c-43aa-49b3-ad13-82bf548d100f}, !- Summer Design Day Schedule Name
  {f8974ce5-0cb1-49cb-9369-e4ab25cf77ad}; !- Winter Design Day Schedule Name

OS:Schedule:Day,
  {ddeb514a-66ad-4e89-a646-46c80785ffed}, !- Handle
  0800|1800|MidriseApartment|default|hoo Schedule Week Day, !- Name
  {72f05275-bed1-4ca9-9997-25469b9e95a4}, !- Schedule Type Limits Name
  ,                                       !- Interpolate to Timestep
  8,                                      !- Hour 1
  0,                                      !- Minute 1
  0,                                      !- Value Until Time 1
  18,                                     !- Hour 2
  0,                                      !- Minute 2
  1,                                      !- Value Until Time 2
  24,                                     !- Hour 3
  0,                                      !- Minute 3
  0;                                      !- Value Until Time 3

OS:Schedule:Day,
  {e4378964-a9b0-41de-b4ff-4ec77e22f40a}, !- Handle
  Schedule Day 2,                         !- Name
  ,                                       !- Schedule Type Limits Name
  ,                                       !- Interpolate to Timestep
  24,                                     !- Hour 1
  0,                                      !- Minute 1
  0;                                      !- Value Until Time 1

OS:Schedule:Day,
  {f8974ce5-0cb1-49cb-9369-e4ab25cf77ad}, !- Handle
  0800|1800|MidriseApartment|default|hoo Winter Design Day, !- Name
  {72f05275-bed1-4ca9-9997-25469b9e95a4}, !- Schedule Type Limits Name
  ,                                       !- Interpolate to Timestep
  24,                                     !- Hour 1
  0,                                      !- Minute 1
  0;                                      !- Value Until Time 1

OS:Schedule:Day,
  {ca1bfd1e-8009-4c60-b763-b904168271d0}, !- Handle
  Schedule Day 3,                         !- Name
  ,                                       !- Schedule Type Limits Name
  ,                                       !- Interpolate to Timestep
  24,                                     !- Hour 1
  0,                                      !- Minute 1
  0;                                      !- Value Until Time 1

OS:Schedule:Day,
  {68e5a96c-43aa-49b3-ad13-82bf548d100f}, !- Handle
  0800|1800|MidriseApartment|default|hoo Summer Design Day, !- Name
  {72f05275-bed1-4ca9-9997-25469b9e95a4}, !- Schedule Type Limits Name
  ,                                       !- Interpolate to Timestep
  24,                                     !- Hour 1
  0,                                      !- Minute 1
  1;                                      !- Value Until Time 1

OS:DefaultScheduleSet,
  {d7e84373-8c1a-463f-a5ad-9fcf1ca4ff53}, !- Handle
  Building Hours of Operation,            !- Name
  {cca1a98b-fb44-4ee8-908e-d8f2bd5e1fa2}, !- Hours of Operation Schedule Name
  ,                                       !- Number of People Schedule Name
  ,                                       !- People Activity Level Schedule Name
  ,                                       !- Lighting Schedule Name
  ,                                       !- Electric Equipment Schedule Name
  ,                                       !- Gas Equipment Schedule Name
  ,                                       !- Hot Water Equipment Schedule Name
  ,                                       !- Infiltration Schedule Name
  ,                                       !- Steam Equipment Schedule Name
  ;                                       !- Other Equipment Schedule Name

OS:ScheduleTypeLimits,
  {72f05275-bed1-4ca9-9997-25469b9e95a4}, !- Handle
  OnOff,                                  !- Name
  0,                                      !- Lower Limit Value {BasedOnField A4}
  1,                                      !- Upper Limit Value {BasedOnField A4}
  Discrete,                               !- Numeric Type
  Availability;                           !- Unit Type

OS:Schedule:Ruleset,
  {4bafdf29-ee6f-4144-aa83-718779b4fd4b}, !- Handle
  0800|1800|MidriseApartment|xOffice|lighting, !- Name
  {8bd68359-1acf-45cb-a858-cca03fa2f070}, !- Schedule Type Limits Name
  {c84164db-adb1-4094-bc80-8f93119f497d}, !- Default Day Schedule Name
  {318838fc-ccd1-41cf-ac7b-e976209ffa88}, !- Summer Design Day Schedule Name
  {2fcb85d5-ce47-435d-934c-9ef7fab95167}; !- Winter Design Day Schedule Name

OS:ScheduleTypeLimits,
  {8bd68359-1acf-45cb-a858-cca03fa2f070}, !- Handle
  Lights Schedule Type Limits,            !- Name
  0,                                      !- Lower Limit Value {BasedOnField A4}
  1,                                      !- Upper Limit Value {BasedOnField A4}
  Continuous,                             !- Numeric Type
  Dimensionless;                          !- Unit Type

OS:Schedule:Day,
  {c84164db-adb1-4094-bc80-8f93119f497d}, !- Handle
  0800|1800|MidriseApartment|xOffice|lighting |default, !- Name
  {8bd68359-1acf-45cb-a858-cca03fa2f070}, !- Schedule Type Limits Name
  ,                                       !- Interpolate to Timestep
  8,                                      !- Hour 1
  0,                                      !- Minute 1
  0.18,                                   !- Value Until Time 1
  12,                                     !- Hour 2
  0,                                      !- Minute 2
  0.9,                                    !- Value Until Time 2
  13,                                     !- Hour 3
  0,                                      !- Minute 3
  0.8,                                    !- Value Until Time 3
  17,                                     !- Hour 4
  0,                                      !- Minute 4
  0.9,                                    !- Value Until Time 4
  24,                                     !- Hour 5
  0,                                      !- Minute 5
  0.18;                                   !- Value Until Time 5

OS:Schedule:Day,
  {318838fc-ccd1-41cf-ac7b-e976209ffa88}, !- Handle
  0800|1800|MidriseApartment|xOffice|lighting Summer Design Day, !- Name
  {8bd68359-1acf-45cb-a858-cca03fa2f070}, !- Schedule Type Limits Name
  ,                                       !- Interpolate to Timestep
  8,                                      !- Hour 1
  0,                                      !- Minute 1
  0.18,                                   !- Value Until Time 1
  17,                                     !- Hour 2
  0,                                      !- Minute 2
  1,                                      !- Value Until Time 2
  24,                                     !- Hour 3
  0,                                      !- Minute 3
  0.18;                                   !- Value Until Time 3

OS:Schedule:Day,
  {2fcb85d5-ce47-435d-934c-9ef7fab95167}, !- Handle
  0800|1800|MidriseApartment|xOffice|lighting Winter Design Day, !- Name
  {8bd68359-1acf-45cb-a858-cca03fa2f070}, !- Schedule Type Limits Name
  ,                                       !- Interpolate to Timestep
  24,                                     !- Hour 1
  0,                                      !- Minute 1
  0.18;                                   !- Value Until Time 1

OS:Schedule:Ruleset,
  {77574b7b-2c3a-4c4b-92c2-503ca8bf2756}, !- Handle
  0800|1800|MidriseApartment|default|hw_loop_temp, !- Name
  {46ba231c-ac15-485a-87d0-47de8d322997}, !- Schedule Type Limits Name
  {426b3f8b-913a-4013-b34a-0cd48912ab18}, !- Default Day Schedule Name
  {d0f877cb-9870-48e1-b06c-5275594cb3ca}, !- Summer Design Day Schedule Name
  {470ca97f-b57f-4f9b-b3ef-059e9a4be229}; !- Winter Design Day Schedule Name

OS:ScheduleTypeLimits,
  {46ba231c-ac15-485a-87d0-47de8d322997}, !- Handle
  Temperature Schedule Type Limits,       !- Name
  ,                                       !- Lower Limit Value {BasedOnField A4}
  ,                                       !- Upper Limit Value {BasedOnField A4}
  Continuous,                             !- Numeric Type
  Temperature;                            !- Unit Type

OS:Schedule:Day,
  {426b3f8b-913a-4013-b34a-0cd48912ab18}, !- Handle
  0800|1800|MidriseApartment|default|hw_loop_temp |default, !- Name
  {46ba231c-ac15-485a-87d0-47de8d322997}, !- Schedule Type Limits Name
  ,                                       !- Interpolate to Timestep
  24,                                     !- Hour 1
  0,                                      !- Minute 1
  60.0000000000001;                       !- Value Until Time 1

OS:Schedule:Day,
  {d0f877cb-9870-48e1-b06c-5275594cb3ca}, !- Handle
  0800|1800|MidriseApartment|default|hw_loop_temp Summer Design Day, !- Name
  {46ba231c-ac15-485a-87d0-47de8d322997}, !- Schedule Type Limits Name
  ,                                       !- Interpolate to Timestep
  24,                                     !- Hour 1
  0,                                      !- Minute 1
  60.0000000000001;                       !- Value Until Time 1

OS:Schedule:Day,
  {470ca97f-b57f-4f9b-b3ef-059e9a4be229}, !- Handle
  0800|1800|MidriseApartment|default|hw_loop_temp Winter Design Day, !- Name
  {46ba231c-ac15-485a-87d0-47de8d322997}, !- Schedule Type Limits Name
  ,                                       !- Interpolate to Timestep
  24,                                     !- Hour 1
  0,                                      !- Minute 1
  60.0000000000001;                       !- Value Until Time 1

OS:Schedule:Ruleset,
  {2b01d47e-5b05-44eb-8808-a3af9c076616}, !- Handle
  0800|1800|MidriseApartment|default|ext_lighting, !- Name
  {8bd68359-1acf-45cb-a858-cca03fa2f070}, !- Schedule Type Limits Name
  {3e75a6eb-a517-47bd-af14-28c7a9e51c47}, !- Default Day Schedule Name
  {d591c06c-bf19-43d1-b948-3dbac74197b2}, !- Summer Design Day Schedule Name
  {39c7793d-1552-4f13-9d74-8a4b16f4a9f2}; !- Winter Design Day Schedule Name

OS:Schedule:Day,
  {3e75a6eb-a517-47bd-af14-28c7a9e51c47}, !- Handle
  0800|1800|MidriseApartment|default|ext_lighting |default, !- Name
  {8bd68359-1acf-45cb-a858-cca03fa2f070}, !- Schedule Type Limits Name
  ,                                       !- Interpolate to Timestep
  24,                                     !- Hour 1
  0,                                      !- Minute 1
  1;                                      !- Value Until Time 1

OS:Schedule:Day,
  {d591c06c-bf19-43d1-b948-3dbac74197b2}, !- Handle
  0800|1800|MidriseApartment|default|ext_lighting Summer Design Day, !- Name
  {8bd68359-1acf-45cb-a858-cca03fa2f070}, !- Schedule Type Limits Name
  ,                                       !- Interpolate to Timestep
  24,                                     !- Hour 1
  0,                                      !- Minute 1
  1;                                      !- Value Until Time 1

OS:Schedule:Day,
  {39c7793d-1552-4f13-9d74-8a4b16f4a9f2}, !- Handle
  0800|1800|MidriseApartment|default|ext_lighting Winter Design Day, !- Name
  {8bd68359-1acf-45cb-a858-cca03fa2f070}, !- Schedule Type Limits Name
  ,                                       !- Interpolate to Timestep
  24,                                     !- Hour 1
  0,                                      !- Minute 1
  1;                                      !- Value Until Time 1

OS:Schedule:Ruleset,
  {ee0f289d-7dd4-4a0f-b8ed-bbc1c864dc30}, !- Handle
  0800|1800|MidriseApartment|Apartment|hvac, !- Name
  {c3d926ad-fb23-49dd-8e07-e550c19fb978}, !- Schedule Type Limits Name
  {6164a7e5-4bf8-4416-bc83-66dcbd0d3150}, !- Default Day Schedule Name
  {cc79fb78-d166-429f-a04b-744b9f924563}, !- Summer Design Day Schedule Name
  {d3ab944c-fac6-462f-bba3-5a0059d2ce58}; !- Winter Design Day Schedule Name

OS:ScheduleTypeLimits,
  {c3d926ad-fb23-49dd-8e07-e550c19fb978}, !- Handle
  HVAC Operation Schedule Type Limits,    !- Name
  0,                                      !- Lower Limit Value {BasedOnField A4}
  1,                                      !- Upper Limit Value {BasedOnField A4}
  Discrete,                               !- Numeric Type
  Availability;                           !- Unit Type

OS:Schedule:Day,
  {6164a7e5-4bf8-4416-bc83-66dcbd0d3150}, !- Handle
  0800|1800|MidriseApartment|Apartment|hvac |default, !- Name
  {c3d926ad-fb23-49dd-8e07-e550c19fb978}, !- Schedule Type Limits Name
  ,                                       !- Interpolate to Timestep
  24,                                     !- Hour 1
  0,                                      !- Minute 1
  1;                                      !- Value Until Time 1

OS:Schedule:Day,
  {cc79fb78-d166-429f-a04b-744b9f924563}, !- Handle
  0800|1800|MidriseApartment|Apartment|hvac Summer Design Day, !- Name
  {c3d926ad-fb23-49dd-8e07-e550c19fb978}, !- Schedule Type Limits Name
  ,                                       !- Interpolate to Timestep
  24,                                     !- Hour 1
  0,                                      !- Minute 1
  1;                                      !- Value Until Time 1

OS:Schedule:Day,
  {d3ab944c-fac6-462f-bba3-5a0059d2ce58}, !- Handle
  0800|1800|MidriseApartment|Apartment|hvac Winter Design Day, !- Name
  {c3d926ad-fb23-49dd-8e07-e550c19fb978}, !- Schedule Type Limits Name
  ,                                       !- Interpolate to Timestep
  24,                                     !- Hour 1
  0,                                      !- Minute 1
  1;                                      !- Value Until Time 1

OS:Schedule:Ruleset,
  {ffb70de8-3862-4f69-85a5-4d4854e87cb4}, !- Handle
  0800|1800|MidriseApartment|default|htg_setpoint, !- Name
  {805b769d-8c07-49f1-9d45-890f223724f9}, !- Schedule Type Limits Name
  {6700aaa8-4f28-43a9-81ba-bd1507370fb1}, !- Default Day Schedule Name
  {ac0064f9-338d-4030-a004-56ac21574601}, !- Summer Design Day Schedule Name
  {b62d7868-8045-48a9-ae87-f3570c6dbbef}; !- Winter Design Day Schedule Name

OS:ScheduleTypeLimits,
  {805b769d-8c07-49f1-9d45-890f223724f9}, !- Handle
  Thermostat Heating Setpoint Schedule Type Limits, !- Name
  0,                                      !- Lower Limit Value {BasedOnField A4}
  100,                                    !- Upper Limit Value {BasedOnField A4}
  Continuous,                             !- Numeric Type
  Temperature;                            !- Unit Type

OS:Schedule:Day,
  {6700aaa8-4f28-43a9-81ba-bd1507370fb1}, !- Handle
  0800|1800|MidriseApartment|default|htg_setpoint |default, !- Name
  {805b769d-8c07-49f1-9d45-890f223724f9}, !- Schedule Type Limits Name
  ,                                       !- Interpolate to Timestep
  24,                                     !- Hour 1
  0,                                      !- Minute 1
  21.1111111111111;                       !- Value Until Time 1

OS:Schedule:Day,
  {ac0064f9-338d-4030-a004-56ac21574601}, !- Handle
  0800|1800|MidriseApartment|default|htg_setpoint Summer Design Day, !- Name
  {805b769d-8c07-49f1-9d45-890f223724f9}, !- Schedule Type Limits Name
  ,                                       !- Interpolate to Timestep
  24,                                     !- Hour 1
  0,                                      !- Minute 1
  21.1111111111111;                       !- Value Until Time 1

OS:Schedule:Day,
  {b62d7868-8045-48a9-ae87-f3570c6dbbef}, !- Handle
  0800|1800|MidriseApartment|default|htg_setpoint Winter Design Day, !- Name
  {805b769d-8c07-49f1-9d45-890f223724f9}, !- Schedule Type Limits Name
  ,                                       !- Interpolate to Timestep
  24,                                     !- Hour 1
  0,                                      !- Minute 1
  21.1111111111111;                       !- Value Until Time 1

OS:Schedule:Ruleset,
  {3c988981-ca0d-433c-ba1b-d205305ad52a}, !- Handle
  0800|1800|MidriseApartment|default|activity, !- Name
  {86771d22-9681-48cc-919b-c827fb3f44bd}, !- Schedule Type Limits Name
  {4124c98f-d5a4-47ec-91f2-806d0dab78e9}, !- Default Day Schedule Name
  {23ab7807-ada9-4c1d-9bce-948d21e7f9ab}, !- Summer Design Day Schedule Name
  {a8a1b1aa-16e1-4d98-b6a9-876904d4fc0a}; !- Winter Design Day Schedule Name

OS:ScheduleTypeLimits,
  {86771d22-9681-48cc-919b-c827fb3f44bd}, !- Handle
  People Activity Type Limits,            !- Name
  0,                                      !- Lower Limit Value {BasedOnField A4}
  ,                                       !- Upper Limit Value {BasedOnField A4}
  Continuous,                             !- Numeric Type
  ActivityLevel;                          !- Unit Type

OS:Schedule:Day,
  {4124c98f-d5a4-47ec-91f2-806d0dab78e9}, !- Handle
  0800|1800|MidriseApartment|default|activity |default, !- Name
  {86771d22-9681-48cc-919b-c827fb3f44bd}, !- Schedule Type Limits Name
  ,                                       !- Interpolate to Timestep
  24,                                     !- Hour 1
  0,                                      !- Minute 1
  120;                                    !- Value Until Time 1

OS:Schedule:Day,
  {23ab7807-ada9-4c1d-9bce-948d21e7f9ab}, !- Handle
  0800|1800|MidriseApartment|default|activity Summer Design Day, !- Name
  {86771d22-9681-48cc-919b-c827fb3f44bd}, !- Schedule Type Limits Name
  ,                                       !- Interpolate to Timestep
  24,                                     !- Hour 1
  0,                                      !- Minute 1
  120;                                    !- Value Until Time 1

OS:Schedule:Day,
  {a8a1b1aa-16e1-4d98-b6a9-876904d4fc0a}, !- Handle
  0800|1800|MidriseApartment|default|activity Winter Design Day, !- Name
  {86771d22-9681-48cc-919b-c827fb3f44bd}, !- Schedule Type Limits Name
  ,                                       !- Interpolate to Timestep
  24,                                     !- Hour 1
  0,                                      !- Minute 1
  120;                                    !- Value Until Time 1

OS:Schedule:Ruleset,
  {9127927d-831b-4d8c-b0ce-f0e4c8a983f3}, !- Handle
  0800|1800|MidriseApartment|Office|occ,  !- Name
  {0e2c2e9d-bddc-4b66-8d4c-29e33c50f1e4}, !- Schedule Type Limits Name
  {762285aa-e238-414a-bfc6-317db96f18c0}, !- Default Day Schedule Name
  {e51d484e-07be-4a7d-accc-6ca5282fbfac}, !- Summer Design Day Schedule Name
  {4fc0a284-7a55-421d-b123-098c08796ac2}; !- Winter Design Day Schedule Name

OS:ScheduleTypeLimits,
  {0e2c2e9d-bddc-4b66-8d4c-29e33c50f1e4}, !- Handle
  Occupancy Schedule Type Limits,         !- Name
  0,                                      !- Lower Limit Value {BasedOnField A4}
  1,                                      !- Upper Limit Value {BasedOnField A4}
  Continuous,                             !- Numeric Type
  Dimensionless;                          !- Unit Type

OS:Schedule:Day,
  {762285aa-e238-414a-bfc6-317db96f18c0}, !- Handle
  0800|1800|MidriseApartment|Office|occ |default, !- Name
  {0e2c2e9d-bddc-4b66-8d4c-29e33c50f1e4}, !- Schedule Type Limits Name
  ,                                       !- Interpolate to Timestep
  8,                                      !- Hour 1
  0,                                      !- Minute 1
  0,                                      !- Value Until Time 1
  9,                                      !- Hour 2
  0,                                      !- Minute 2
  0.87,                                   !- Value Until Time 2
  9,                                      !- Hour 3
  30,                                     !- Minute 3
  0.54,                                   !- Value Until Time 3
  10,                                     !- Hour 4
  0,                                      !- Minute 4
  0.34,                                   !- Value Until Time 4
  11,                                     !- Hour 5
  0,                                      !- Minute 5
  0.87,                                   !- Value Until Time 5
  11,                                     !- Hour 6
  30,                                     !- Minute 6
  0.54,                                   !- Value Until Time 6
  12,                                     !- Hour 7
  0,                                      !- Minute 7
  0.34,                                   !- Value Until Time 7
  12,                                     !- Hour 8
  30,                                     !- Minute 8
  0.76,                                   !- Value Until Time 8
  13,                                     !- Hour 9
  0,                                      !- Minute 9
  0.91,                                   !- Value Until Time 9
  15,                                     !- Hour 10
  30,                                     !- Minute 10
  0.95,                                   !- Value Until Time 10
  16,                                     !- Hour 11
  0,                                      !- Minute 11
  0.19,                                   !- Value Until Time 11
  16,                                     !- Hour 12
  30,                                     !- Minute 12
  0.14,                                   !- Value Until Time 12
  17,                                     !- Hour 13
  0,                                      !- Minute 13
  0.13,                                   !- Value Until Time 13
  24,                                     !- Hour 14
  0,                                      !- Minute 14
  0;                                      !- Value Until Time 14

OS:Schedule:Day,
  {e51d484e-07be-4a7d-accc-6ca5282fbfac}, !- Handle
  0800|1800|MidriseApartment|Office|occ Summer Design Day, !- Name
  {0e2c2e9d-bddc-4b66-8d4c-29e33c50f1e4}, !- Schedule Type Limits Name
  ,                                       !- Interpolate to Timestep