
OS:Version,
  {601b5544-80cd-4ec0-ac18-643661fc7767}, !- Handle
  1.6.0;                                  !- Version Identifier

OS:ClimateZones,
  {135edfab-17e7-40db-a436-27d385a8cd6d}, !- Handle
  ,                                       !- Active Institution
  ,                                       !- Active Year
  ASHRAE,                                 !- Climate Zone Institution Name 1
  ANSI/ASHRAE Standard 169,               !- Climate Zone Document Name 1
  2006,                                   !- Climate Zone Document Year 1
  ,                                       !- Climate Zone Value 1
  CEC,                                    !- Climate Zone Institution Name 2
  California Climate Zone Descriptions,   !- Climate Zone Document Name 2
  1995,                                   !- Climate Zone Document Year 2
  ;                                       !- Climate Zone Value 2

OS:YearDescription,
  {513d8dda-86cb-442a-b01c-1f7f0e0ac70e}; !- Handle

OS:RadianceParameters,
  {270a96f1-3c86-4b75-a667-cdf22790e2c8}, !- Handle
  1,                                      !- Accumulated Rays per Record
  0,                                      !- Direct Threshold
  1,                                      !- Direct Certainty
  1,                                      !- Direct Jitter
  1,                                      !- Direct Pretest
  6,                                      !- Ambient Bounces VMX
  2,                                      !- Ambient Bounces DMX
  4050,                                   !- Ambient Divisions VMX
  512,                                    !- Ambient Divisions DMX
  256,                                    !- Ambient Supersamples
  0.001,                                  !- Limit Weight VMX
  0.001,                                  !- Limit Weight DMX
  500,                                    !- Klems Sampling Density
  146;                                    !- Sky Discretization Resolution

OS:SimulationControl,
  {2c487a4c-bac9-4ac5-b669-1e49d9da7c2b}, !- Handle
  ,                                       !- Do Zone Sizing Calculation
  ,                                       !- Do System Sizing Calculation
  ,                                       !- Do Plant Sizing Calculation
  No,                                     !- Run Simulation for Sizing Periods
  ,                                       !- Run Simulation for Weather File Run Periods
  0.04,                                   !- Loads Convergence Tolerance Value
  ,                                       !- Temperature Convergence Tolerance Value {deltaC}
  ,                                       !- Solar Distribution
  ,                                       !- Maximum Number of Warmup Days
  2;                                      !- Minimum Number of Warmup Days

OS:Sizing:Parameters,
  {dde5af6f-7923-4600-a28a-7556673a0266}, !- Handle
  1.25,                                   !- Heating Sizing Factor
  1.15;                                   !- Cooling Sizing Factor

OS:ProgramControl,
  {05027a99-f2b3-4aeb-afc6-1425fbb4371d}; !- Handle

OS:Timestep,
  {4ebc9f1e-4707-402e-9844-67eb1ffbd522}, !- Handle
  2;                                      !- Number of Timesteps per Hour

OS:OutputControl:ReportingTolerances,
  {65797aa2-06a9-45fe-b69d-bc6e060399d3}; !- Handle

OS:ConvergenceLimits,
  {9fc11aba-8822-4f3d-970c-46391ba4040d}; !- Handle

OS:ShadowCalculation,
  {ca758bea-4416-4626-9bba-3d8795c79bd6}, !- Handle
  7,                                      !- Calculation Frequency
  15000;                                  !- Maximum Figures in Shadow Overlap Calculations

OS:SurfaceConvectionAlgorithm:Inside,
  {aaabfc36-718a-4ab0-b622-f186ebb45230}, !- Handle
  TARP;                                   !- Algorithm

OS:SurfaceConvectionAlgorithm:Outside,
  {9a0a9f6f-4bbd-4b12-a121-9492a1fcd7d6}, !- Handle
  DOE-2;                                  !- Algorithm

OS:HeatBalanceAlgorithm,
  {9d93e563-e1e0-46d7-9e39-d1c8aceb7212}, !- Handle
  ConductionTransferFunction,             !- Algorithm
  200;                                    !- Surface Temperature Upper Limit {F}

OS:ZoneAirHeatBalanceAlgorithm,
  {8520d93e-310f-4696-9bcd-36228bfdd743}, !- Handle
  AnalyticalSolution;                     !- Algorithm

OS:ZoneAirContaminantBalance,
  {eb5fc3ae-fb22-4160-8fcb-3e3b22b000d3}; !- Handle

OS:ZoneCapacitanceMultiplier:ResearchSpecial,
  {4020ce4f-5a7a-4849-8028-8305d7b751b1}, !- Handle
  ,                                       !- Temperature Capacity Multiplier
  ,                                       !- Humidity Capacity Multiplier
  ;                                       !- Carbon Dioxide Capacity Multiplier

OS:RunPeriod,
  {28df894d-6af9-4fb8-8f56-df1753344aa3}, !- Handle
  Run Period 1,                           !- Name
  1,                                      !- Begin Month
  1,                                      !- Begin Day of Month
  12,                                     !- End Month
  31,                                     !- End Day of Month
  ,                                       !- Use Weather File Holidays and Special Days
  ,                                       !- Use Weather File Daylight Saving Period
  ,                                       !- Apply Weekend Holiday Rule
  ,                                       !- Use Weather File Rain Indicators
  ,                                       !- Use Weather File Snow Indicators
  ;                                       !- Number of Times Runperiod to be Repeated

OS:Building,
  {bf305633-c5a1-4881-9edf-ca5e1a8e1274}, !- Handle
  Building 1,                             !- Name
  ,                                       !- Building Sector Type
  ,                                       !- North Axis {deg}
  ,                                       !- Nominal Floor to Floor Height {m}
  ,                                       !- Space Type Name
  ,                                       !- Default Construction Set Name
  {9365c545-17b6-439a-8c45-823b1912b8a9}, !- Default Schedule Set Name
  ,                                       !- Standards Number of Stories
  ,                                       !- Standards Number of Above Ground Stories
  MidriseApartment;                       !- Standards Building Type

OS:LifeCycleCost:Parameters,
  {231cf8a0-f0e7-4251-a99f-11f0d464e661}, !- Handle
  FEMP,                                   !- Analysis Type
  ,                                       !- Discounting Convention
  ,                                       !- Inflation Approach
  ,                                       !- Real Discount Rate
  ,                                       !- Nominal Discount Rate
  ,                                       !- Inflation
  ,                                       !- Base Date Month
  ,                                       !- Base Date Year
  ,                                       !- Service Date Month
  ,                                       !- Service Date Year
  ,                                       !- Length of Study Period in Years
  ,                                       !- Tax Rate
  ,                                       !- Depreciation Method
  Yes;                                    !- Use NIST Fuel Escalation Rates

OS:Facility,
  {3ba8e45b-b833-44eb-a723-ea6c3946dc96}; !- Handle

OS:SpaceType,
  {4721b0a7-323f-43de-afaa-b15a607645bf}, !- Handle
  MidriseApartment|Apartment|DOE Ref Pre-1980|ASHRAE 169-2006-5A, !- Name
  {dbcd1c74-13cb-4e9b-bf6b-4526f348897b}, !- Default Construction Set Name
  {bbf98aa1-f18b-4095-8b0b-f911f38f62fb}, !- Default Schedule Set Name
  {a6aff9aa-6b99-432d-bb0b-7733a04e9b2e}, !- Group Rendering Name
  {0008cf18-f8d6-4ac0-8ea8-fe52a627d289}, !- Design Specification Outdoor Air Object Name
  MidriseApartment,                       !- Standards Building Type
  Apartment;                              !- Standards Space Type

OS:Rendering:Color,
  {a6aff9aa-6b99-432d-bb0b-7733a04e9b2e}, !- Handle
  Rendering Color 1,                      !- Name
  78,                                     !- Rendering Red Value
  167,                                    !- Rendering Green Value
  222;                                    !- Rendering Blue Value

OS:Schedule:Ruleset,
  {c96c5da8-9fe1-4b9e-be3f-d8f1f17ccb10}, !- Handle
  0800|1800|MidriseApartment|default|hoo, !- Name
  {16de9a0c-7b22-4fef-92cf-be665a614f12}, !- Schedule Type Limits Name
  {5e8adfb6-a58a-49c5-aae5-37a165747417}, !- Default Day Schedule Name
  {7507468a-474b-4fbc-a68e-46457b59aeb8}, !- Summer Design Day Schedule Name
  {03223366-43fc-49df-9e79-843524792fef}; !- Winter Design Day Schedule Name

OS:Schedule:Day,
  {5e8adfb6-a58a-49c5-aae5-37a165747417}, !- Handle
  0800|1800|MidriseApartment|default|hoo Schedule Week Day, !- Name
  {16de9a0c-7b22-4fef-92cf-be665a614f12}, !- Schedule Type Limits Name
  ,                                       !- Interpolate to Timestep
  8,                                      !- Hour 1
  0,                                      !- Minute 1
  0,                                      !- Value Until Time 1
  18,                                     !- Hour 2
  0,                                      !- Minute 2
  1,                                      !- Value Until Time 2
  24,                                     !- Hour 3
  0,                                      !- Minute 3
  0;                                      !- Value Until Time 3

OS:Schedule:Day,
  {e4923b2f-aa48-4d60-b8fd-bbca7097e168}, !- Handle
  Schedule Day 2,                         !- Name
  ,                                       !- Schedule Type Limits Name
  ,                                       !- Interpolate to Timestep
  24,                                     !- Hour 1
  0,                                      !- Minute 1
  0;                                      !- Value Until Time 1

OS:Schedule:Day,
  {03223366-43fc-49df-9e79-843524792fef}, !- Handle
  0800|1800|MidriseApartment|default|hoo Winter Design Day, !- Name
  {16de9a0c-7b22-4fef-92cf-be665a614f12}, !- Schedule Type Limits Name
  ,                                       !- Interpolate to Timestep
  24,                                     !- Hour 1
  0,                                      !- Minute 1
  0;                                      !- Value Until Time 1

OS:Schedule:Day,
  {61655839-9da2-447b-a1cd-badc2084dfcc}, !- Handle
  Schedule Day 3,                         !- Name
  ,                                       !- Schedule Type Limits Name
  ,                                       !- Interpolate to Timestep
  24,                                     !- Hour 1
  0,                                      !- Minute 1
  0;                                      !- Value Until Time 1

OS:Schedule:Day,
  {7507468a-474b-4fbc-a68e-46457b59aeb8}, !- Handle
  0800|1800|MidriseApartment|default|hoo Summer Design Day, !- Name
  {16de9a0c-7b22-4fef-92cf-be665a614f12}, !- Schedule Type Limits Name
  ,                                       !- Interpolate to Timestep
  24,                                     !- Hour 1
  0,                                      !- Minute 1
  1;                                      !- Value Until Time 1

OS:DefaultScheduleSet,
  {9365c545-17b6-439a-8c45-823b1912b8a9}, !- Handle
  Building Hours of Operation,            !- Name
  {c96c5da8-9fe1-4b9e-be3f-d8f1f17ccb10}, !- Hours of Operation Schedule Name
  ,                                       !- Number of People Schedule Name
  ,                                       !- People Activity Level Schedule Name
  ,                                       !- Lighting Schedule Name
  ,                                       !- Electric Equipment Schedule Name
  ,                                       !- Gas Equipment Schedule Name
  ,                                       !- Hot Water Equipment Schedule Name
  ,                                       !- Infiltration Schedule Name
  ,                                       !- Steam Equipment Schedule Name
  ;                                       !- Other Equipment Schedule Name

OS:ScheduleTypeLimits,
  {16de9a0c-7b22-4fef-92cf-be665a614f12}, !- Handle
  OnOff,                                  !- Name
  0,                                      !- Lower Limit Value {BasedOnField A4}
  1,                                      !- Upper Limit Value {BasedOnField A4}
  Discrete,                               !- Numeric Type
  Availability;                           !- Unit Type

OS:Schedule:Ruleset,
  {35dcb81f-4738-49eb-922c-511713fc8e70}, !- Handle
  0800|1800|MidriseApartment|default|hw_loop_temp, !- Name
  {19de550c-be1e-4767-8a8e-e92af1ff82a3}, !- Schedule Type Limits Name
  {a5e6f57f-cae2-4cfe-9837-98093ec9d40d}, !- Default Day Schedule Name
  {ce4f9704-0d82-49be-8978-3e2af2437d2b}, !- Summer Design Day Schedule Name
  {6cddee75-a768-4769-a5ad-29d72c84aadc}; !- Winter Design Day Schedule Name

OS:ScheduleTypeLimits,
  {19de550c-be1e-4767-8a8e-e92af1ff82a3}, !- Handle
  Temperature Schedule Type Limits,       !- Name
  ,                                       !- Lower Limit Value {BasedOnField A4}
  ,                                       !- Upper Limit Value {BasedOnField A4}
  Continuous,                             !- Numeric Type
  Temperature;                            !- Unit Type

OS:Schedule:Day,
  {a5e6f57f-cae2-4cfe-9837-98093ec9d40d}, !- Handle
  0800|1800|MidriseApartment|default|hw_loop_temp |default, !- Name
  {19de550c-be1e-4767-8a8e-e92af1ff82a3}, !- Schedule Type Limits Name
  ,                                       !- Interpolate to Timestep
  24,                                     !- Hour 1
  0,                                      !- Minute 1
  60.0000000000001;                       !- Value Until Time 1

OS:Schedule:Day,
  {ce4f9704-0d82-49be-8978-3e2af2437d2b}, !- Handle
  0800|1800|MidriseApartment|default|hw_loop_temp Summer Design Day, !- Name
  {19de550c-be1e-4767-8a8e-e92af1ff82a3}, !- Schedule Type Limits Name
  ,                                       !- Interpolate to Timestep
  24,                                     !- Hour 1
  0,                                      !- Minute 1
  60.0000000000001;                       !- Value Until Time 1

OS:Schedule:Day,
  {6cddee75-a768-4769-a5ad-29d72c84aadc}, !- Handle
  0800|1800|MidriseApartment|default|hw_loop_temp Winter Design Day, !- Name
  {19de550c-be1e-4767-8a8e-e92af1ff82a3}, !- Schedule Type Limits Name
  ,                                       !- Interpolate to Timestep
  24,                                     !- Hour 1
  0,                                      !- Minute 1
  60.0000000000001;                       !- Value Until Time 1

OS:Schedule:Ruleset,
  {6a1fcec4-4202-40db-9415-606ff458d6dd}, !- Handle
  0800|1800|MidriseApartment|Office|infiltration, !- Name
  {cc9c583c-f944-4eb9-a5bc-840f97041e4f}, !- Schedule Type Limits Name
  {73235bd7-5790-47aa-b981-f9dd14991b6c}, !- Default Day Schedule Name
  {00973ac1-82cf-493b-9a3b-24178680450e}, !- Summer Design Day Schedule Name
  {cb03b36d-012f-467f-9b3f-5edae596abba}; !- Winter Design Day Schedule Name

OS:ScheduleTypeLimits,
  {cc9c583c-f944-4eb9-a5bc-840f97041e4f}, !- Handle
  Fraction Schedule Type Limits,          !- Name
  0,                                      !- Lower Limit Value {BasedOnField A4}
  1,                                      !- Upper Limit Value {BasedOnField A4}
  Continuous,                             !- Numeric Type
  Dimensionless;                          !- Unit Type

OS:Schedule:Day,
  {73235bd7-5790-47aa-b981-f9dd14991b6c}, !- Handle
  0800|1800|MidriseApartment|Office|infiltration |default, !- Name
  {cc9c583c-f944-4eb9-a5bc-840f97041e4f}, !- Schedule Type Limits Name
  ,                                       !- Interpolate to Timestep
  8,                                      !- Hour 1
  0,                                      !- Minute 1
  1,                                      !- Value Until Time 1
  17,                                     !- Hour 2
  0,                                      !- Minute 2
  0.25,                                   !- Value Until Time 2
  24,                                     !- Hour 3
  0,                                      !- Minute 3
  1;                                      !- Value Until Time 3

OS:Schedule:Day,
  {00973ac1-82cf-493b-9a3b-24178680450e}, !- Handle
  0800|1800|MidriseApartment|Office|infiltration Summer Design Day, !- Name
  {cc9c583c-f944-4eb9-a5bc-840f97041e4f}, !- Schedule Type Limits Name
  ,                                       !- Interpolate to Timestep
  8,                                      !- Hour 1
  0,                                      !- Minute 1
  1,                                      !- Value Until Time 1
  17,                                     !- Hour 2
  0,                                      !- Minute 2
  0.25,                                   !- Value Until Time 2
  24,                                     !- Hour 3
  0,                                      !- Minute 3
  1;                                      !- Value Until Time 3

OS:Schedule:Day,
  {cb03b36d-012f-467f-9b3f-5edae596abba}, !- Handle
  0800|1800|MidriseApartment|Office|infiltration Winter Design Day, !- Name
  {cc9c583c-f944-4eb9-a5bc-840f97041e4f}, !- Schedule Type Limits Name
  ,                                       !- Interpolate to Timestep
  8,                                      !- Hour 1
  0,                                      !- Minute 1
  1,                                      !- Value Until Time 1
  17,                                     !- Hour 2
  0,                                      !- Minute 2
  0.25,                                   !- Value Until Time 2
  24,                                     !- Hour 3
  0,                                      !- Minute 3
  1;                                      !- Value Until Time 3

OS:Schedule:Ruleset,
  {cd869ec0-cf4f-4aa8-a3b3-64202daf6b61}, !- Handle
  0800|1800|MidriseApartment|default|clothing, !- Name
  {c33cc423-cc16-4f0d-8d76-2aa24520f219}, !- Schedule Type Limits Name
  {33151134-cffa-499a-8f68-d6612b0edcae}, !- Default Day Schedule Name
  {affe9129-71e2-4342-9d3c-1d84a155b743}, !- Summer Design Day Schedule Name
  {09f7302d-069b-43f6-955f-6a8925044e6e}; !- Winter Design Day Schedule Name

OS:ScheduleTypeLimits,
  {c33cc423-cc16-4f0d-8d76-2aa24520f219}, !- Handle
  Dimensionless Schedule Type Limits,     !- Name
  ,                                       !- Lower Limit Value {BasedOnField A4}
  ,                                       !- Upper Limit Value {BasedOnField A4}
  Continuous,                             !- Numeric Type
  Dimensionless;                          !- Unit Type

OS:Schedule:Day,
  {33151134-cffa-499a-8f68-d6612b0edcae}, !- Handle
  0800|1800|MidriseApartment|default|clothing |default, !- Name
  {c33cc423-cc16-4f0d-8d76-2aa24520f219}, !- Schedule Type Limits Name
  ,                                       !- Interpolate to Timestep
  24,                                     !- Hour 1
  0,                                      !- Minute 1
  0.9;                                    !- Value Until Time 1

OS:Schedule:Day,
  {affe9129-71e2-4342-9d3c-1d84a155b743}, !- Handle
  0800|1800|MidriseApartment|default|clothing Summer Design Day, !- Name
  {c33cc423-cc16-4f0d-8d76-2aa24520f219}, !- Schedule Type Limits Name
  ,                                       !- Interpolate to Timestep
  24,                                     !- Hour 1
  0,                                      !- Minute 1
  0.9;                                    !- Value Until Time 1

OS:Schedule:Day,
  {09f7302d-069b-43f6-955f-6a8925044e6e}, !- Handle
  0800|1800|MidriseApartment|default|clothing Winter Design Day, !- Name
  {c33cc423-cc16-4f0d-8d76-2aa24520f219}, !- Schedule Type Limits Name
  ,                                       !- Interpolate to Timestep
  24,                                     !- Hour 1
  0,                                      !- Minute 1
  0.9;                                    !- Value Until Time 1

OS:Schedule:Rule,
  {f9e1954b-5793-4a6a-b531-9c57a2e18d7c}, !- Handle
  0800|1800|MidriseApartment|default|clothing |7/1-9/30|Mon/Tue/Wed/Thu/Fri/Sat/Sun Rule, !- Name
  {cd869ec0-cf4f-4aa8-a3b3-64202daf6b61}, !- Schedule Ruleset Name
  0,                                      !- Rule Order
  {6914b7d3-86c2-4d3f-9555-629d259f92f4}, !- Day Schedule Name
  Yes,                                    !- Apply Sunday
  Yes,                                    !- Apply Monday
  Yes,                                    !- Apply Tuesday
  Yes,                                    !- Apply Wednesday
  Yes,                                    !- Apply Thursday
  Yes,                                    !- Apply Friday
  Yes,                                    !- Apply Saturday
  ,                                       !- Apply Holiday
  DateRange,                              !- Date Specification Type
  7,                                      !- Start Month
  1,                                      !- Start Day
  9,                                      !- End Month
  30;                                     !- End Day

OS:Schedule:Day,
  {6914b7d3-86c2-4d3f-9555-629d259f92f4}, !- Handle
  0800|1800|MidriseApartment|default|clothing |7/1-9/30|Mon/Tue/Wed/Thu/Fri/Sat/Sun, !- Name
  {c33cc423-cc16-4f0d-8d76-2aa24520f219}, !- Schedule Type Limits Name
  ,                                       !- Interpolate to Timestep
  24,                                     !- Hour 1
  0,                                      !- Minute 1
  0.7;                                    !- Value Until Time 1

OS:Schedule:Rule,
  {07ecbe67-2c70-4c7f-bb86-dcb5a02184dd}, !- Handle
  0800|1800|MidriseApartment|default|clothing |12/1-3/31|Mon/Tue/Wed/Thu/Fri/Sat/Sun Rule, !- Name
  {cd869ec0-cf4f-4aa8-a3b3-64202daf6b61}, !- Schedule Ruleset Name
  1,                                      !- Rule Order
  {5c7521f4-0a58-47c4-90c1-9c57dd458c79}, !- Day Schedule Name
  Yes,                                    !- Apply Sunday
  Yes,                                    !- Apply Monday
  Yes,                                    !- Apply Tuesday
  Yes,                                    !- Apply Wednesday
  Yes,                                    !- Apply Thursday
  Yes,                                    !- Apply Friday
  Yes,                                    !- Apply Saturday
  ,                                       !- Apply Holiday
  DateRange,                              !- Date Specification Type
  12,                                     !- Start Month
  1,                                      !- Start Day
  3,                                      !- End Month
  31;                                     !- End Day

OS:Schedule:Day,
  {5c7521f4-0a58-47c4-90c1-9c57dd458c79}, !- Handle
  0800|1800|MidriseApartment|default|clothing |12/1-3/31|Mon/Tue/Wed/Thu/Fri/Sat/Sun, !- Name
  {c33cc423-cc16-4f0d-8d76-2aa24520f219}, !- Schedule Type Limits Name
  ,                                       !- Interpolate to Timestep
  24,                                     !- Hour 1
  0,                                      !- Minute 1
  1.3;                                    !- Value Until Time 1

OS:Schedule:Ruleset,
  {f7aceeb8-73ae-4aaa-aa69-f19686c78aee}, !- Handle
  0800|1800|MidriseApartment|Apartment|gas_equip, !- Name
  {11e3846c-d898-4ef8-bb0f-9c762c3d01b1}, !- Schedule Type Limits Name
  {bda5e5ce-1900-4de6-be82-a2ae7c546c09}, !- Default Day Schedule Name
  {5ed9a36c-6524-4ccb-b7a9-3227f52099c9}, !- Summer Design Day Schedule Name
  {4a59d2a2-a1dc-4c96-b39e-b18be1c8be9f}; !- Winter Design Day Schedule Name

OS:ScheduleTypeLimits,
  {11e3846c-d898-4ef8-bb0f-9c762c3d01b1}, !- Handle
  Equipment Schedule Type Limits,         !- Name
  0,                                      !- Lower Limit Value {BasedOnField A4}
  1,                                      !- Upper Limit Value {BasedOnField A4}
  Continuous,                             !- Numeric Type
  Dimensionless;                          !- Unit Type

OS:Schedule:Day,
  {bda5e5ce-1900-4de6-be82-a2ae7c546c09}, !- Handle
  0800|1800|MidriseApartment|Apartment|gas_equip |default, !- Name
  {11e3846c-d898-4ef8-bb0f-9c762c3d01b1}, !- Schedule Type Limits Name
  ,                                       !- Interpolate to Timestep
  1,                                      !- Hour 1
  0,                                      !- Minute 1
  0.45,                                   !- Value Until Time 1
  2,                                      !- Hour 2
  0,                                      !- Minute 2
  0.41,                                   !- Value Until Time 2
  3,                                      !- Hour 3
  0,                                      !- Minute 3
  0.39,                                   !- Value Until Time 3
  5,                                      !- Hour 4
  0,                                      !- Minute 4
  0.38,                                   !- Value Until Time 4
  6,                                      !- Hour 5
  0,                                      !- Minute 5
  0.43,                                   !- Value Until Time 5
  7,                                      !- Hour 6
  0,                                      !- Minute 6
  0.54,                                   !- Value Until Time 6
  8,                                      !- Hour 7
  0,                                      !- Minute 7
  0.65,                                   !- Value Until Time 7
  9,                                      !- Hour 8
  0,                                      !- Minute 8
  0.66,                                   !- Value Until Time 8
  10,                                     !- Hour 9
  0,                                      !- Minute 9
  0.67,                                   !- Value Until Time 9
  11,                                     !- Hour 10
  0,                                      !- Minute 10
  0.69,                                   !- Value Until Time 10
  12,                                     !- Hour 11
  0,                                      !- Minute 11
  0.7,                                    !- Value Until Time 11
  13,                                     !- Hour 12
  0,                                      !- Minute 12
  0.69,                                   !- Value Until Time 12
  14,                                     !- Hour 13
  0,                                      !- Minute 13
  0.66,                                   !- Value Until Time 13
  15,                                     !- Hour 14
  0,                                      !- Minute 14
  0.65,                                   !- Value Until Time 14
  16,                                     !- Hour 15
  0,                                      !- Minute 15
  0.68,                                   !- Value Until Time 15
  17,                                     !- Hour 16
  0,                                      !- Minute 16
  0.8,                                    !- Value Until Time 16
  19,                                     !- Hour 17
  0,                                      !- Minute 17
  1,                                      !- Value Until Time 17
  20,                                     !- Hour 18
  0,                                      !- Minute 18
  0.93,                                   !- Value Until Time 18
  21,                                     !- Hour 19
  0,                                      !- Minute 19
  0.89,                                   !- Value Until Time 19
  22,                                     !- Hour 20
  0,                                      !- Minute 20
  0.85,                                   !- Value Until Time 20
  23,                                     !- Hour 21
  0,                                      !- Minute 21
  0.71,                                   !- Value Until Time 21
  24,                                     !- Hour 22
  0,                                      !- Minute 22
  0.58;                                   !- Value Until Time 22

OS:Schedule:Day,
  {5ed9a36c-6524-4ccb-b7a9-3227f52099c9}, !- Handle
  0800|1800|MidriseApartment|Apartment|gas_equip Summer Design Day, !- Name
  {11e3846c-d898-4ef8-bb0f-9c762c3d01b1}, !- Schedule Type Limits Name
  ,                                       !- Interpolate to Timestep
  24,                                     !- Hour 1
  0,                                      !- Minute 1
  1;                                      !- Value Until Time 1

OS:Schedule:Day,
  {4a59d2a2-a1dc-4c96-b39e-b18be1c8be9f}, !- Handle
  0800|1800|MidriseApartment|Apartment|gas_equip Winter Design Day, !- Name
  {11e3846c-d898-4ef8-bb0f-9c762c3d01b1}, !- Schedule Type Limits Name
  ,                                       !- Interpolate to Timestep
  24,                                     !- Hour 1
  0,                                      !- Minute 1
  0.38;                                   !- Value Until Time 1

OS:Schedule:Ruleset,
  {c4b324e3-e13a-4f8a-873a-394fb85d457b}, !- Handle
  0800|1800|MidriseApartment|Office|elec_equip, !- Name
  {11e3846c-d898-4ef8-bb0f-9c762c3d01b1}, !- Schedule Type Limits Name
  {36e48ee5-e193-44b2-be54-a2687f04438f}, !- Default Day Schedule Name
  {12cd6a74-ace0-47e1-b3c1-b255d7d64399}, !- Summer Design Day Schedule Name
  {9fd16791-3fbc-44ab-954d-77abfc1972e9}; !- Winter Design Day Schedule Name

OS:Schedule:Day,
  {36e48ee5-e193-44b2-be54-a2687f04438f}, !- Handle
  0800|1800|MidriseApartment|Office|elec_equip |default, !- Name
  {11e3846c-d898-4ef8-bb0f-9c762c3d01b1}, !- Schedule Type Limits Name
  ,                                       !- Interpolate to Timestep
  8,                                      !- Hour 1
  0,                                      !- Minute 1
  0,                                      !- Value Until Time 1
  12,                                     !- Hour 2