
OS:Version,
  {24c8c43d-c4dc-41eb-bec0-824bc6d7983a}, !- Handle
  1.5.5;                                  !- Version Identifier

OS:ClimateZones,
  {135edfab-17e7-40db-a436-27d385a8cd6d}, !- Handle
  ,                                       !- Active Institution
  ,                                       !- Active Year
  ASHRAE,                                 !- Climate Zone Institution Name 1
  ANSI/ASHRAE Standard 169,               !- Climate Zone Document Name 1
  2006,                                   !- Climate Zone Document Year 1
  ,                                       !- Climate Zone Value 1
  CEC,                                    !- Climate Zone Institution Name 2
  California Climate Zone Descriptions,   !- Climate Zone Document Name 2
  1995,                                   !- Climate Zone Document Year 2
  ;                                       !- Climate Zone Value 2

OS:YearDescription,
  {513d8dda-86cb-442a-b01c-1f7f0e0ac70e}; !- Handle

OS:RadianceParameters,
  {270a96f1-3c86-4b75-a667-cdf22790e2c8}, !- Handle
  1,                                      !- Accumulated Rays per Record
  0,                                      !- Direct Threshold
  1,                                      !- Direct Certainty
  1,                                      !- Direct Jitter
  1,                                      !- Direct Pretest
  6,                                      !- Ambient Bounces VMX
  2,                                      !- Ambient Bounces DMX
  4050,                                   !- Ambient Divisions VMX
  512,                                    !- Ambient Divisions DMX
  256,                                    !- Ambient Supersamples
  0.001,                                  !- Limit Weight VMX
  0.001,                                  !- Limit Weight DMX
  500,                                    !- Klems Sampling Density
  146;                                    !- Sky Discretization Resolution

OS:SimulationControl,
  {2c487a4c-bac9-4ac5-b669-1e49d9da7c2b}, !- Handle
  ,                                       !- Do Zone Sizing Calculation
  ,                                       !- Do System Sizing Calculation
  ,                                       !- Do Plant Sizing Calculation
  No,                                     !- Run Simulation for Sizing Periods
  ,                                       !- Run Simulation for Weather File Run Periods
  0.04,                                   !- Loads Convergence Tolerance Value
  ,                                       !- Temperature Convergence Tolerance Value {deltaC}
  ,                                       !- Solar Distribution
  ,                                       !- Maximum Number of Warmup Days
  2;                                      !- Minimum Number of Warmup Days

OS:Sizing:Parameters,
  {dde5af6f-7923-4600-a28a-7556673a0266}, !- Handle
  1.25,                                   !- Heating Sizing Factor
  1.15;                                   !- Cooling Sizing Factor

OS:ProgramControl,
  {05027a99-f2b3-4aeb-afc6-1425fbb4371d}; !- Handle

OS:Timestep,
  {4ebc9f1e-4707-402e-9844-67eb1ffbd522}, !- Handle
  2;                                      !- Number of Timesteps per Hour

OS:OutputControl:ReportingTolerances,
  {65797aa2-06a9-45fe-b69d-bc6e060399d3}; !- Handle

OS:ConvergenceLimits,
  {9fc11aba-8822-4f3d-970c-46391ba4040d}; !- Handle

OS:ShadowCalculation,
  {ca758bea-4416-4626-9bba-3d8795c79bd6}, !- Handle
  7,                                      !- Calculation Frequency
  15000;                                  !- Maximum Figures in Shadow Overlap Calculations

OS:SurfaceConvectionAlgorithm:Inside,
  {aaabfc36-718a-4ab0-b622-f186ebb45230}, !- Handle
  TARP;                                   !- Algorithm

OS:SurfaceConvectionAlgorithm:Outside,
  {9a0a9f6f-4bbd-4b12-a121-9492a1fcd7d6}, !- Handle
  DOE-2;                                  !- Algorithm

OS:HeatBalanceAlgorithm,
  {9d93e563-e1e0-46d7-9e39-d1c8aceb7212}, !- Handle
  ConductionTransferFunction,             !- Algorithm
  200;                                    !- Surface Temperature Upper Limit {F}

OS:ZoneAirHeatBalanceAlgorithm,
  {8520d93e-310f-4696-9bcd-36228bfdd743}, !- Handle
  AnalyticalSolution;                     !- Algorithm

OS:ZoneAirContaminantBalance,
  {eb5fc3ae-fb22-4160-8fcb-3e3b22b000d3}; !- Handle

OS:ZoneCapacitanceMultiplier:ResearchSpecial,
  {4020ce4f-5a7a-4849-8028-8305d7b751b1}, !- Handle
  ,                                       !- Temperature Capacity Multiplier
  ,                                       !- Humidity Capacity Multiplier
  ;                                       !- Carbon Dioxide Capacity Multiplier

OS:RunPeriod,
  {28df894d-6af9-4fb8-8f56-df1753344aa3}, !- Handle
  Run Period 1,                           !- Name
  1,                                      !- Begin Month
  1,                                      !- Begin Day of Month
  12,                                     !- End Month
  31,                                     !- End Day of Month
  ,                                       !- Use Weather File Holidays and Special Days
  ,                                       !- Use Weather File Daylight Saving Period
  ,                                       !- Apply Weekend Holiday Rule
  ,                                       !- Use Weather File Rain Indicators
  ,                                       !- Use Weather File Snow Indicators
  ;                                       !- Number of Times Runperiod to be Repeated

OS:Building,
  {bf305633-c5a1-4881-9edf-ca5e1a8e1274}, !- Handle
  Building 1,                             !- Name
  ,                                       !- Building Sector Type
  ,                                       !- North Axis {deg}
  ,                                       !- Nominal Floor to Floor Height {m}
  ,                                       !- Space Type Name
  ,                                       !- Default Construction Set Name
  {d751b40e-1dde-4cf9-98fc-bb711c46ee3a}, !- Default Schedule Set Name
  ,                                       !- Standards Number of Stories
  ,                                       !- Standards Number of Above Ground Stories
  MidriseApartment;                       !- Standards Building Type

OS:LifeCycleCost:Parameters,
  {231cf8a0-f0e7-4251-a99f-11f0d464e661}, !- Handle
  FEMP,                                   !- Analysis Type
  ,                                       !- Discounting Convention
  ,                                       !- Inflation Approach
  ,                                       !- Real Discount Rate
  ,                                       !- Nominal Discount Rate
  ,                                       !- Inflation
  ,                                       !- Base Date Month
  ,                                       !- Base Date Year
  ,                                       !- Service Date Month
  ,                                       !- Service Date Year
  ,                                       !- Length of Study Period in Years
  ,                                       !- Tax Rate
  ,                                       !- Depreciation Method
  Yes;                                    !- Use NIST Fuel Escalation Rates

OS:Facility,
  {3ba8e45b-b833-44eb-a723-ea6c3946dc96}; !- Handle

OS:SpaceType,
  {34df4ab6-4f9d-4a71-b62f-314b1411bbd9}, !- Handle
  MidriseApartment|Apartment|DOE Ref Pre-1980|ASHRAE 169-2006-5A, !- Name
  {05d08886-9714-4d5c-95cc-26ca59ed408f}, !- Default Construction Set Name
  {602d6fe9-3831-4d58-b405-e0395080125f}, !- Default Schedule Set Name
  {949b3061-4da1-49d1-9ce3-e63803013f4e}, !- Group Rendering Name
  {49ad337d-a665-4244-a8a0-675aeb5b86e6}, !- Design Specification Outdoor Air Object Name
  MidriseApartment,                       !- Standards Building Type
  Apartment;                              !- Standards Space Type

OS:Rendering:Color,
  {949b3061-4da1-49d1-9ce3-e63803013f4e}, !- Handle
  Rendering Color 1,                      !- Name
  78,                                     !- Rendering Red Value
  167,                                    !- Rendering Green Value
  222;                                    !- Rendering Blue Value

OS:Schedule:Ruleset,
  {77599623-00e4-4f5c-98e7-717786a6ee2b}, !- Handle
  0800|1800|MidriseApartment|default|hoo, !- Name
  {1486d093-73ff-4a8d-bdb5-eee7caf74d18}, !- Schedule Type Limits Name
  {2da3b072-c601-49a1-bae7-a836ed3a4229}, !- Default Day Schedule Name
  {c3d15e49-b51e-4a3b-8c83-4ae748ef95fa}, !- Summer Design Day Schedule Name
  {1c8f3675-94d1-42d2-9ac4-50c19a719b03}; !- Winter Design Day Schedule Name

OS:Schedule:Day,
  {2da3b072-c601-49a1-bae7-a836ed3a4229}, !- Handle
  0800|1800|MidriseApartment|default|hoo Schedule Week Day, !- Name
  {1486d093-73ff-4a8d-bdb5-eee7caf74d18}, !- Schedule Type Limits Name
  ,                                       !- Interpolate to Timestep
  8,                                      !- Hour 1
  0,                                      !- Minute 1
  0,                                      !- Value Until Time 1
  18,                                     !- Hour 2
  0,                                      !- Minute 2
  1,                                      !- Value Until Time 2
  24,                                     !- Hour 3
  0,                                      !- Minute 3
  0;                                      !- Value Until Time 3

OS:Schedule:Day,
  {ef0e673b-c276-4870-85ab-dde567a65477}, !- Handle
  Schedule Day 2,                         !- Name
  ,                                       !- Schedule Type Limits Name
  ,                                       !- Interpolate to Timestep
  24,                                     !- Hour 1
  0,                                      !- Minute 1
  0;                                      !- Value Until Time 1

OS:Schedule:Day,
  {1c8f3675-94d1-42d2-9ac4-50c19a719b03}, !- Handle
  0800|1800|MidriseApartment|default|hoo Winter Design Day, !- Name
  {1486d093-73ff-4a8d-bdb5-eee7caf74d18}, !- Schedule Type Limits Name
  ,                                       !- Interpolate to Timestep
  24,                                     !- Hour 1
  0,                                      !- Minute 1
  0;                                      !- Value Until Time 1

OS:Schedule:Day,
  {73afb457-1e29-4d8f-8621-e290b18aa77a}, !- Handle
  Schedule Day 3,                         !- Name
  ,                                       !- Schedule Type Limits Name
  ,                                       !- Interpolate to Timestep
  24,                                     !- Hour 1
  0,                                      !- Minute 1
  0;                                      !- Value Until Time 1

OS:Schedule:Day,
  {c3d15e49-b51e-4a3b-8c83-4ae748ef95fa}, !- Handle
  0800|1800|MidriseApartment|default|hoo Summer Design Day, !- Name
  {1486d093-73ff-4a8d-bdb5-eee7caf74d18}, !- Schedule Type Limits Name
  ,                                       !- Interpolate to Timestep
  24,                                     !- Hour 1
  0,                                      !- Minute 1
  1;                                      !- Value Until Time 1

OS:DefaultScheduleSet,
  {d751b40e-1dde-4cf9-98fc-bb711c46ee3a}, !- Handle
  Building Hours of Operation,            !- Name
  {77599623-00e4-4f5c-98e7-717786a6ee2b}, !- Hours of Operation Schedule Name
  ,                                       !- Number of People Schedule Name
  ,                                       !- People Activity Level Schedule Name
  ,                                       !- Lighting Schedule Name
  ,                                       !- Electric Equipment Schedule Name
  ,                                       !- Gas Equipment Schedule Name
  ,                                       !- Hot Water Equipment Schedule Name
  ,                                       !- Infiltration Schedule Name
  ,                                       !- Steam Equipment Schedule Name
  ;                                       !- Other Equipment Schedule Name

OS:ScheduleTypeLimits,
  {1486d093-73ff-4a8d-bdb5-eee7caf74d18}, !- Handle
  OnOff,                                  !- Name
  0,                                      !- Lower Limit Value {BasedOnField A4}
  1,                                      !- Upper Limit Value {BasedOnField A4}
  Discrete,                               !- Numeric Type
  Availability;                           !- Unit Type

OS:Schedule:Ruleset,
  {cbec553b-02c9-4784-92d5-4b8fc7410057}, !- Handle
  0800|1800|MidriseApartment|xOffice|lighting, !- Name
  {acdb3c5d-bf2e-460e-b5c9-2c2a43e1b65f}, !- Schedule Type Limits Name
  {3d9cac77-4e3f-4d7b-8d28-b8530241c498}, !- Default Day Schedule Name
  {3599d847-3335-40f4-be85-13fe57aa958c}, !- Summer Design Day Schedule Name
  {671b97af-0668-4f40-9694-a8c1c1175402}; !- Winter Design Day Schedule Name

OS:ScheduleTypeLimits,
  {acdb3c5d-bf2e-460e-b5c9-2c2a43e1b65f}, !- Handle
  Lights Schedule Type Limits,            !- Name
  0,                                      !- Lower Limit Value {BasedOnField A4}
  1,                                      !- Upper Limit Value {BasedOnField A4}
  Continuous,                             !- Numeric Type
  Dimensionless;                          !- Unit Type

OS:Schedule:Day,
  {3d9cac77-4e3f-4d7b-8d28-b8530241c498}, !- Handle
  0800|1800|MidriseApartment|xOffice|lighting |default, !- Name
  {acdb3c5d-bf2e-460e-b5c9-2c2a43e1b65f}, !- Schedule Type Limits Name
  ,                                       !- Interpolate to Timestep
  8,                                      !- Hour 1
  0,                                      !- Minute 1
  0.18,                                   !- Value Until Time 1
  12,                                     !- Hour 2
  0,                                      !- Minute 2
  0.9,                                    !- Value Until Time 2
  13,                                     !- Hour 3
  0,                                      !- Minute 3
  0.8,                                    !- Value Until Time 3
  17,                                     !- Hour 4
  0,                                      !- Minute 4
  0.9,                                    !- Value Until Time 4
  24,                                     !- Hour 5
  0,                                      !- Minute 5
  0.18;                                   !- Value Until Time 5

OS:Schedule:Day,
  {3599d847-3335-40f4-be85-13fe57aa958c}, !- Handle
  0800|1800|MidriseApartment|xOffice|lighting Summer Design Day, !- Name
  {acdb3c5d-bf2e-460e-b5c9-2c2a43e1b65f}, !- Schedule Type Limits Name
  ,                                       !- Interpolate to Timestep
  8,                                      !- Hour 1
  0,                                      !- Minute 1
  0.18,                                   !- Value Until Time 1
  17,                                     !- Hour 2
  0,                                      !- Minute 2
  1,                                      !- Value Until Time 2
  24,                                     !- Hour 3
  0,                                      !- Minute 3
  0.18;                                   !- Value Until Time 3

OS:Schedule:Day,
  {671b97af-0668-4f40-9694-a8c1c1175402}, !- Handle
  0800|1800|MidriseApartment|xOffice|lighting Winter Design Day, !- Name
  {acdb3c5d-bf2e-460e-b5c9-2c2a43e1b65f}, !- Schedule Type Limits Name
  ,                                       !- Interpolate to Timestep
  24,                                     !- Hour 1
  0,                                      !- Minute 1
  0.18;                                   !- Value Until Time 1

OS:Schedule:Ruleset,
  {0846d236-213b-451f-9024-3192089f00a6}, !- Handle
  0800|1800|MidriseApartment|default|hw_loop_temp, !- Name
  {c5600fb0-3701-4345-a7fb-c2a2ed4bdd2b}, !- Schedule Type Limits Name
  {8bdb9749-67d7-4555-9efe-59177be0402b}, !- Default Day Schedule Name
  {5734ecc1-8f96-4829-be80-485c42ba182f}, !- Summer Design Day Schedule Name
  {bf4c3cad-5cff-4367-9b47-7d6ce950b0da}; !- Winter Design Day Schedule Name

OS:ScheduleTypeLimits,
  {c5600fb0-3701-4345-a7fb-c2a2ed4bdd2b}, !- Handle
  Temperature Schedule Type Limits,       !- Name
  ,                                       !- Lower Limit Value {BasedOnField A4}
  ,                                       !- Upper Limit Value {BasedOnField A4}
  Continuous,                             !- Numeric Type
  Temperature;                            !- Unit Type

OS:Schedule:Day,
  {8bdb9749-67d7-4555-9efe-59177be0402b}, !- Handle
  0800|1800|MidriseApartment|default|hw_loop_temp |default, !- Name
  {c5600fb0-3701-4345-a7fb-c2a2ed4bdd2b}, !- Schedule Type Limits Name
  ,                                       !- Interpolate to Timestep
  24,                                     !- Hour 1
  0,                                      !- Minute 1
  60.0000000000001;                       !- Value Until Time 1

OS:Schedule:Day,
  {5734ecc1-8f96-4829-be80-485c42ba182f}, !- Handle
  0800|1800|MidriseApartment|default|hw_loop_temp Summer Design Day, !- Name
  {c5600fb0-3701-4345-a7fb-c2a2ed4bdd2b}, !- Schedule Type Limits Name
  ,                                       !- Interpolate to Timestep
  24,                                     !- Hour 1
  0,                                      !- Minute 1
  60.0000000000001;                       !- Value Until Time 1

OS:Schedule:Day,
  {bf4c3cad-5cff-4367-9b47-7d6ce950b0da}, !- Handle
  0800|1800|MidriseApartment|default|hw_loop_temp Winter Design Day, !- Name
  {c5600fb0-3701-4345-a7fb-c2a2ed4bdd2b}, !- Schedule Type Limits Name
  ,                                       !- Interpolate to Timestep
  24,                                     !- Hour 1
  0,                                      !- Minute 1
  60.0000000000001;                       !- Value Until Time 1

OS:Schedule:Ruleset,
  {97c7bf46-7c53-4047-9da6-97bbd9fec238}, !- Handle
  0800|1800|MidriseApartment|default|ext_lighting, !- Name
  {acdb3c5d-bf2e-460e-b5c9-2c2a43e1b65f}, !- Schedule Type Limits Name
  {dab5d238-8774-498a-8a82-4dee4ef52a45}, !- Default Day Schedule Name
  {a9f43d85-50f2-4143-a587-3a165879e01c}, !- Summer Design Day Schedule Name
  {62180351-1383-48b1-a141-83764efe7932}; !- Winter Design Day Schedule Name

OS:Schedule:Day,
  {dab5d238-8774-498a-8a82-4dee4ef52a45}, !- Handle
  0800|1800|MidriseApartment|default|ext_lighting |default, !- Name
  {acdb3c5d-bf2e-460e-b5c9-2c2a43e1b65f}, !- Schedule Type Limits Name
  ,                                       !- Interpolate to Timestep
  24,                                     !- Hour 1
  0,                                      !- Minute 1
  1;                                      !- Value Until Time 1

OS:Schedule:Day,
  {a9f43d85-50f2-4143-a587-3a165879e01c}, !- Handle
  0800|1800|MidriseApartment|default|ext_lighting Summer Design Day, !- Name
  {acdb3c5d-bf2e-460e-b5c9-2c2a43e1b65f}, !- Schedule Type Limits Name
  ,                                       !- Interpolate to Timestep
  24,                                     !- Hour 1
  0,                                      !- Minute 1
  1;                                      !- Value Until Time 1

OS:Schedule:Day,
  {62180351-1383-48b1-a141-83764efe7932}, !- Handle
  0800|1800|MidriseApartment|default|ext_lighting Winter Design Day, !- Name
  {acdb3c5d-bf2e-460e-b5c9-2c2a43e1b65f}, !- Schedule Type Limits Name
  ,                                       !- Interpolate to Timestep
  24,                                     !- Hour 1
  0,                                      !- Minute 1
  1;                                      !- Value Until Time 1

OS:Schedule:Ruleset,
  {4b35b52b-0624-4a15-b130-4d1806cbd1a3}, !- Handle
  0800|1800|MidriseApartment|Apartment|hvac, !- Name
  {bbee2ee1-8644-4b39-89ab-e2b76da00595}, !- Schedule Type Limits Name
  {f551a95d-c164-4e3d-94c3-b21ea86f8253}, !- Default Day Schedule Name
  {21d98b0c-f78a-4640-8091-615c6d718cc4}, !- Summer Design Day Schedule Name
  {05cba3df-7f64-4982-97f9-62b210d7a6bc}; !- Winter Design Day Schedule Name

OS:ScheduleTypeLimits,
  {bbee2ee1-8644-4b39-89ab-e2b76da00595}, !- Handle
  HVAC Operation Schedule Type Limits,    !- Name
  0,                                      !- Lower Limit Value {BasedOnField A4}
  1,                                      !- Upper Limit Value {BasedOnField A4}
  Discrete,                               !- Numeric Type
  Availability;                           !- Unit Type

OS:Schedule:Day,
  {f551a95d-c164-4e3d-94c3-b21ea86f8253}, !- Handle
  0800|1800|MidriseApartment|Apartment|hvac |default, !- Name
  {bbee2ee1-8644-4b39-89ab-e2b76da00595}, !- Schedule Type Limits Name
  ,                                       !- Interpolate to Timestep
  24,                                     !- Hour 1
  0,                                      !- Minute 1
  1;                                      !- Value Until Time 1

OS:Schedule:Day,
  {21d98b0c-f78a-4640-8091-615c6d718cc4}, !- Handle
  0800|1800|MidriseApartment|Apartment|hvac Summer Design Day, !- Name
  {bbee2ee1-8644-4b39-89ab-e2b76da00595}, !- Schedule Type Limits Name
  ,                                       !- Interpolate to Timestep
  24,                                     !- Hour 1
  0,                                      !- Minute 1
  1;                                      !- Value Until Time 1

OS:Schedule:Day,
  {05cba3df-7f64-4982-97f9-62b210d7a6bc}, !- Handle
  0800|1800|MidriseApartment|Apartment|hvac Winter Design Day, !- Name
  {bbee2ee1-8644-4b39-89ab-e2b76da00595}, !- Schedule Type Limits Name
  ,                                       !- Interpolate to Timestep
  24,                                     !- Hour 1
  0,                                      !- Minute 1
  1;                                      !- Value Until Time 1

OS:Schedule:Ruleset,
  {60be4172-bb4a-4baf-9596-f14934459a48}, !- Handle
  0800|1800|MidriseApartment|default|htg_setpoint, !- Name
  {128393c6-3c52-49d1-bc45-33979df1869e}, !- Schedule Type Limits Name
  {45bed583-1ef4-40ab-a447-03c62a9688a7}, !- Default Day Schedule Name
  {bfc53ade-ff54-4c25-8a0a-028bed1adc08}, !- Summer Design Day Schedule Name
  {747f6dcb-ffd9-45cb-8f84-ddf8dbdb0e06}; !- Winter Design Day Schedule Name

OS:ScheduleTypeLimits,
  {128393c6-3c52-49d1-bc45-33979df1869e}, !- Handle
  Thermostat Heating Setpoint Schedule Type Limits, !- Name
  0,                                      !- Lower Limit Value {BasedOnField A4}
  100,                                    !- Upper Limit Value {BasedOnField A4}
  Continuous,                             !- Numeric Type
  Temperature;                            !- Unit Type

OS:Schedule:Day,
  {45bed583-1ef4-40ab-a447-03c62a9688a7}, !- Handle
  0800|1800|MidriseApartment|default|htg_setpoint |default, !- Name
  {128393c6-3c52-49d1-bc45-33979df1869e}, !- Schedule Type Limits Name
  ,                                       !- Interpolate to Timestep
  24,                                     !- Hour 1
  0,                                      !- Minute 1
  21.1111111111111;                       !- Value Until Time 1

OS:Schedule:Day,
  {bfc53ade-ff54-4c25-8a0a-028bed1adc08}, !- Handle
  0800|1800|MidriseApartment|default|htg_setpoint Summer Design Day, !- Name
  {128393c6-3c52-49d1-bc45-33979df1869e}, !- Schedule Type Limits Name
  ,                                       !- Interpolate to Timestep
  24,                                     !- Hour 1
  0,                                      !- Minute 1
  21.1111111111111;                       !- Value Until Time 1

OS:Schedule:Day,
  {747f6dcb-ffd9-45cb-8f84-ddf8dbdb0e06}, !- Handle
  0800|1800|MidriseApartment|default|htg_setpoint Winter Design Day, !- Name
  {128393c6-3c52-49d1-bc45-33979df1869e}, !- Schedule Type Limits Name
  ,                                       !- Interpolate to Timestep
  24,                                     !- Hour 1
  0,                                      !- Minute 1
  21.1111111111111;                       !- Value Until Time 1

OS:Schedule:Ruleset,
  {2cf9c233-3295-4667-9a71-1a0a45eb9859}, !- Handle
  0800|1800|MidriseApartment|default|activity, !- Name
  {d044f4f8-1cbd-481a-bf1c-71712ef9add7}, !- Schedule Type Limits Name
  {fc66d46c-ad13-4506-a27e-9fda4e45337f}, !- Default Day Schedule Name
  {339168d9-c8db-4120-b014-811322f8722f}, !- Summer Design Day Schedule Name
  {e840762a-e9c2-4ac5-a001-750acf8eba63}; !- Winter Design Day Schedule Name

OS:ScheduleTypeLimits,
  {d044f4f8-1cbd-481a-bf1c-71712ef9add7}, !- Handle
  People Activity Type Limits,            !- Name
  0,                                      !- Lower Limit Value {BasedOnField A4}
  ,                                       !- Upper Limit Value {BasedOnField A4}
  Continuous,                             !- Numeric Type
  ActivityLevel;                          !- Unit Type

OS:Schedule:Day,
  {fc66d46c-ad13-4506-a27e-9fda4e45337f}, !- Handle
  0800|1800|MidriseApartment|default|activity |default, !- Name
  {d044f4f8-1cbd-481a-bf1c-71712ef9add7}, !- Schedule Type Limits Name
  ,                                       !- Interpolate to Timestep
  24,                                     !- Hour 1
  0,                                      !- Minute 1
  120;                                    !- Value Until Time 1

OS:Schedule:Day,
  {339168d9-c8db-4120-b014-811322f8722f}, !- Handle
  0800|1800|MidriseApartment|default|activity Summer Design Day, !- Name
  {d044f4f8-1cbd-481a-bf1c-71712ef9add7}, !- Schedule Type Limits Name
  ,                                       !- Interpolate to Timestep
  24,                                     !- Hour 1
  0,                                      !- Minute 1
  120;                                    !- Value Until Time 1

OS:Schedule:Day,
  {e840762a-e9c2-4ac5-a001-750acf8eba63}, !- Handle
  0800|1800|MidriseApartment|default|activity Winter Design Day, !- Name
  {d044f4f8-1cbd-481a-bf1c-71712ef9add7}, !- Schedule Type Limits Name
  ,                                       !- Interpolate to Timestep
  24,                                     !- Hour 1
  0,                                      !- Minute 1
  120;                                    !- Value Until Time 1

OS:Schedule:Ruleset,
  {f67271f2-1bbe-40a0-9fb4-5fdb5f13af6a}, !- Handle
  0800|1800|MidriseApartment|Office|occ,  !- Name
  {975217f8-ad37-4f55-89f5-2a02716f170d}, !- Schedule Type Limits Name
  {48cd5272-dc36-4947-8234-e8dc2dec1b90}, !- Default Day Schedule Name
  {0b016528-932e-43f4-b0e1-e82bc157b639}, !- Summer Design Day Schedule Name
  {f298377d-2fe0-4758-8e62-e96bb682a121}; !- Winter Design Day Schedule Name

OS:ScheduleTypeLimits,
  {975217f8-ad37-4f55-89f5-2a02716f170d}, !- Handle
  Occupancy Schedule Type Limits,         !- Name
  0,                                      !- Lower Limit Value {BasedOnField A4}
  1,                                      !- Upper Limit Value {BasedOnField A4}
  Continuous,                             !- Numeric Type
  Dimensionless;                          !- Unit Type

OS:Schedule:Day,
  {48cd5272-dc36-4947-8234-e8dc2dec1b90}, !- Handle
  0800|1800|MidriseApartment|Office|occ |default, !- Name
  {975217f8-ad37-4f55-89f5-2a02716f170d}, !- Schedule Type Limits Name
  ,                                       !- Interpolate to Timestep
  8,                                      !- Hour 1
  0,                                      !- Minute 1
  0,                                      !- Value Until Time 1
  9,                                      !- Hour 2
  0,                                      !- Minute 2
  0.87,                                   !- Value Until Time 2
  9,                                      !- Hour 3
  30,                                     !- Minute 3
  0.54,                                   !- Value Until Time 3
  10,                                     !- Hour 4
  0,                                      !- Minute 4
  0.34,                                   !- Value Until Time 4
  11,                                     !- Hour 5
  0,                                      !- Minute 5
  0.87,                                   !- Value Until Time 5
  11,                                     !- Hour 6
  30,                                     !- Minute 6
  0.54,                                   !- Value Until Time 6
  12,                                     !- Hour 7
  0,                                      !- Minute 7
  0.34,                                   !- Value Until Time 7
  12,                                     !- Hour 8
  30,                                     !- Minute 8
  0.76,                                   !- Value Until Time 8
  13,                                     !- Hour 9
  0,                                      !- Minute 9
  0.91,                                   !- Value Until Time 9
  15,                                     !- Hour 10
  30,                                     !- Minute 10
  0.95,                                   !- Value Until Time 10
  16,                                     !- Hour 11
  0,                                      !- Minute 11
  0.19,                                   !- Value Until Time 11
  16,                                     !- Hour 12
  30,                                     !- Minute 12
  0.14,                                   !- Value Until Time 12
  17,                                     !- Hour 13
  0,                                      !- Minute 13
  0.13,                                   !- Value Until Time 13
  24,                                     !- Hour 14
  0,                                      !- Minute 14
  0;                                      !- Value Until Time 14

OS:Schedule:Day,
  {0b016528-932e-43f4-b0e1-e82bc157b639}, !- Handle
  0800|1800|MidriseApartment|Office|occ Summer Design Day, !- Name
  {975217f8-ad37-4f55-89f5-2a02716f170d}, !- Schedule Type Limits Name
  ,                                       !- Interpolate to Timestep