
OS:Version,
  {e254a8f8-309a-4fb9-9985-c13407a143c9}, !- Handle
  1.6.0;                                  !- Version Identifier

OS:ClimateZones,
  {135edfab-17e7-40db-a436-27d385a8cd6d}, !- Handle
  ,                                       !- Active Institution
  ,                                       !- Active Year
  ASHRAE,                                 !- Climate Zone Institution Name 1
  ANSI/ASHRAE Standard 169,               !- Climate Zone Document Name 1
  2006,                                   !- Climate Zone Document Year 1
  ,                                       !- Climate Zone Value 1
  CEC,                                    !- Climate Zone Institution Name 2
  California Climate Zone Descriptions,   !- Climate Zone Document Name 2
  1995,                                   !- Climate Zone Document Year 2
  ;                                       !- Climate Zone Value 2

OS:YearDescription,
  {513d8dda-86cb-442a-b01c-1f7f0e0ac70e}; !- Handle

OS:RadianceParameters,
  {270a96f1-3c86-4b75-a667-cdf22790e2c8}, !- Handle
  1,                                      !- Accumulated Rays per Record
  0,                                      !- Direct Threshold
  1,                                      !- Direct Certainty
  1,                                      !- Direct Jitter
  1,                                      !- Direct Pretest
  6,                                      !- Ambient Bounces VMX
  2,                                      !- Ambient Bounces DMX
  4050,                                   !- Ambient Divisions VMX
  512,                                    !- Ambient Divisions DMX
  256,                                    !- Ambient Supersamples
  0.001,                                  !- Limit Weight VMX
  0.001,                                  !- Limit Weight DMX
  500,                                    !- Klems Sampling Density
  146;                                    !- Sky Discretization Resolution

OS:SimulationControl,
  {2c487a4c-bac9-4ac5-b669-1e49d9da7c2b}, !- Handle
  ,                                       !- Do Zone Sizing Calculation
  ,                                       !- Do System Sizing Calculation
  ,                                       !- Do Plant Sizing Calculation
  No,                                     !- Run Simulation for Sizing Periods
  ,                                       !- Run Simulation for Weather File Run Periods
  0.04,                                   !- Loads Convergence Tolerance Value
  ,                                       !- Temperature Convergence Tolerance Value {deltaC}
  ,                                       !- Solar Distribution
  ,                                       !- Maximum Number of Warmup Days
  2;                                      !- Minimum Number of Warmup Days

OS:Sizing:Parameters,
  {dde5af6f-7923-4600-a28a-7556673a0266}, !- Handle
  1.25,                                   !- Heating Sizing Factor
  1.15;                                   !- Cooling Sizing Factor

OS:ProgramControl,
  {05027a99-f2b3-4aeb-afc6-1425fbb4371d}; !- Handle

OS:Timestep,
  {4ebc9f1e-4707-402e-9844-67eb1ffbd522}, !- Handle
  2;                                      !- Number of Timesteps per Hour

OS:OutputControl:ReportingTolerances,
  {65797aa2-06a9-45fe-b69d-bc6e060399d3}; !- Handle

OS:ConvergenceLimits,
  {9fc11aba-8822-4f3d-970c-46391ba4040d}; !- Handle

OS:ShadowCalculation,
  {ca758bea-4416-4626-9bba-3d8795c79bd6}, !- Handle
  7,                                      !- Calculation Frequency
  15000;                                  !- Maximum Figures in Shadow Overlap Calculations

OS:SurfaceConvectionAlgorithm:Inside,
  {aaabfc36-718a-4ab0-b622-f186ebb45230}, !- Handle
  TARP;                                   !- Algorithm

OS:SurfaceConvectionAlgorithm:Outside,
  {9a0a9f6f-4bbd-4b12-a121-9492a1fcd7d6}, !- Handle
  DOE-2;                                  !- Algorithm

OS:HeatBalanceAlgorithm,
  {9d93e563-e1e0-46d7-9e39-d1c8aceb7212}, !- Handle
  ConductionTransferFunction,             !- Algorithm
  200;                                    !- Surface Temperature Upper Limit {F}

OS:ZoneAirHeatBalanceAlgorithm,
  {8520d93e-310f-4696-9bcd-36228bfdd743}, !- Handle
  AnalyticalSolution;                     !- Algorithm

OS:ZoneAirContaminantBalance,
  {eb5fc3ae-fb22-4160-8fcb-3e3b22b000d3}; !- Handle

OS:ZoneCapacitanceMultiplier:ResearchSpecial,
  {4020ce4f-5a7a-4849-8028-8305d7b751b1}, !- Handle
  ,                                       !- Temperature Capacity Multiplier
  ,                                       !- Humidity Capacity Multiplier
  ;                                       !- Carbon Dioxide Capacity Multiplier

OS:RunPeriod,
  {28df894d-6af9-4fb8-8f56-df1753344aa3}, !- Handle
  Run Period 1,                           !- Name
  1,                                      !- Begin Month
  1,                                      !- Begin Day of Month
  12,                                     !- End Month
  31,                                     !- End Day of Month
  ,                                       !- Use Weather File Holidays and Special Days
  ,                                       !- Use Weather File Daylight Saving Period
  ,                                       !- Apply Weekend Holiday Rule
  ,                                       !- Use Weather File Rain Indicators
  ,                                       !- Use Weather File Snow Indicators
  ;                                       !- Number of Times Runperiod to be Repeated

OS:Building,
  {bf305633-c5a1-4881-9edf-ca5e1a8e1274}, !- Handle
  Building 1,                             !- Name
  ,                                       !- Building Sector Type
  ,                                       !- North Axis {deg}
  ,                                       !- Nominal Floor to Floor Height {m}
  ,                                       !- Space Type Name
  ,                                       !- Default Construction Set Name
  {3ed82fb7-8d39-4b56-9426-65944844a3f2}, !- Default Schedule Set Name
  ,                                       !- Standards Number of Stories
  ,                                       !- Standards Number of Above Ground Stories
  MidriseApartment;                       !- Standards Building Type

OS:LifeCycleCost:Parameters,
  {231cf8a0-f0e7-4251-a99f-11f0d464e661}, !- Handle
  FEMP,                                   !- Analysis Type
  ,                                       !- Discounting Convention
  ,                                       !- Inflation Approach
  ,                                       !- Real Discount Rate
  ,                                       !- Nominal Discount Rate
  ,                                       !- Inflation
  ,                                       !- Base Date Month
  ,                                       !- Base Date Year
  ,                                       !- Service Date Month
  ,                                       !- Service Date Year
  ,                                       !- Length of Study Period in Years
  ,                                       !- Tax Rate
  ,                                       !- Depreciation Method
  Yes;                                    !- Use NIST Fuel Escalation Rates

OS:Facility,
  {3ba8e45b-b833-44eb-a723-ea6c3946dc96}; !- Handle

OS:SpaceType,
  {fe0d33c2-fbe1-4d25-ba14-adf8ef62c2ce}, !- Handle
  MidriseApartment|Apartment|DOE Ref 2004|ASHRAE 169-2006-5A, !- Name
  {9060f4c1-9fad-4da6-8045-fa68d10b6b64}, !- Default Construction Set Name
  {cade6916-936a-4386-8314-ed8f73f75aae}, !- Default Schedule Set Name
  {b812094b-eb64-48a0-8e4d-24c7732d036d}, !- Group Rendering Name
  {d371edd8-602b-4403-b44d-2b013832dcf9}, !- Design Specification Outdoor Air Object Name
  MidriseApartment,                       !- Standards Building Type
  Apartment;                              !- Standards Space Type

OS:Rendering:Color,
  {b812094b-eb64-48a0-8e4d-24c7732d036d}, !- Handle
  Rendering Color 1,                      !- Name
  78,                                     !- Rendering Red Value
  167,                                    !- Rendering Green Value
  222;                                    !- Rendering Blue Value

OS:Schedule:Ruleset,
  {c97eed97-0064-4325-9ee7-225cf7b5ebc9}, !- Handle
  0800|1800|MidriseApartment|default|hoo, !- Name
  {0717d41d-84c9-4e1a-84f7-9d0adc9e1109}, !- Schedule Type Limits Name
  {db68341d-4ef1-414e-a94a-3924ab11adb5}, !- Default Day Schedule Name
  {b3451a41-d2e5-4039-b81c-c17ea4dffbc5}, !- Summer Design Day Schedule Name
  {a9c54bda-1415-4558-9829-be538f5b8271}; !- Winter Design Day Schedule Name

OS:Schedule:Day,
  {db68341d-4ef1-414e-a94a-3924ab11adb5}, !- Handle
  0800|1800|MidriseApartment|default|hoo Schedule Week Day, !- Name
  {0717d41d-84c9-4e1a-84f7-9d0adc9e1109}, !- Schedule Type Limits Name
  ,                                       !- Interpolate to Timestep
  8,                                      !- Hour 1
  0,                                      !- Minute 1
  0,                                      !- Value Until Time 1
  18,                                     !- Hour 2
  0,                                      !- Minute 2
  1,                                      !- Value Until Time 2
  24,                                     !- Hour 3
  0,                                      !- Minute 3
  0;                                      !- Value Until Time 3

OS:Schedule:Day,
  {7c8ae956-4c10-4f11-9a99-ac8aabba755f}, !- Handle
  Schedule Day 2,                         !- Name
  ,                                       !- Schedule Type Limits Name
  ,                                       !- Interpolate to Timestep
  24,                                     !- Hour 1
  0,                                      !- Minute 1
  0;                                      !- Value Until Time 1

OS:Schedule:Day,
  {a9c54bda-1415-4558-9829-be538f5b8271}, !- Handle
  0800|1800|MidriseApartment|default|hoo Winter Design Day, !- Name
  {0717d41d-84c9-4e1a-84f7-9d0adc9e1109}, !- Schedule Type Limits Name
  ,                                       !- Interpolate to Timestep
  24,                                     !- Hour 1
  0,                                      !- Minute 1
  0;                                      !- Value Until Time 1

OS:Schedule:Day,
  {a6de3744-4a1e-497d-9852-9612283bce0c}, !- Handle
  Schedule Day 3,                         !- Name
  ,                                       !- Schedule Type Limits Name
  ,                                       !- Interpolate to Timestep
  24,                                     !- Hour 1
  0,                                      !- Minute 1
  0;                                      !- Value Until Time 1

OS:Schedule:Day,
  {b3451a41-d2e5-4039-b81c-c17ea4dffbc5}, !- Handle
  0800|1800|MidriseApartment|default|hoo Summer Design Day, !- Name
  {0717d41d-84c9-4e1a-84f7-9d0adc9e1109}, !- Schedule Type Limits Name
  ,                                       !- Interpolate to Timestep
  24,                                     !- Hour 1
  0,                                      !- Minute 1
  1;                                      !- Value Until Time 1

OS:DefaultScheduleSet,
  {3ed82fb7-8d39-4b56-9426-65944844a3f2}, !- Handle
  Building Hours of Operation,            !- Name
  {c97eed97-0064-4325-9ee7-225cf7b5ebc9}, !- Hours of Operation Schedule Name
  ,                                       !- Number of People Schedule Name
  ,                                       !- People Activity Level Schedule Name
  ,                                       !- Lighting Schedule Name
  ,                                       !- Electric Equipment Schedule Name
  ,                                       !- Gas Equipment Schedule Name
  ,                                       !- Hot Water Equipment Schedule Name
  ,                                       !- Infiltration Schedule Name
  ,                                       !- Steam Equipment Schedule Name
  ;                                       !- Other Equipment Schedule Name

OS:ScheduleTypeLimits,
  {0717d41d-84c9-4e1a-84f7-9d0adc9e1109}, !- Handle
  OnOff,                                  !- Name
  0,                                      !- Lower Limit Value {BasedOnField A4}
  1,                                      !- Upper Limit Value {BasedOnField A4}
  Discrete,                               !- Numeric Type
  Availability;                           !- Unit Type

OS:Schedule:Ruleset,
  {1f3a624a-ada6-4710-8210-cad1496b5be2}, !- Handle
  0800|1800|MidriseApartment|default|hw_loop_temp, !- Name
  {c402443f-a853-417f-a1c0-b4774208ebd4}, !- Schedule Type Limits Name
  {1c0485f9-dbf8-4824-b4d6-cdeb55678c02}, !- Default Day Schedule Name
  {140ce24f-76e2-4b5f-9374-a21c5d67904e}, !- Summer Design Day Schedule Name
  {a9b13da0-3916-4d2b-81fe-27c3feb03a26}; !- Winter Design Day Schedule Name

OS:ScheduleTypeLimits,
  {c402443f-a853-417f-a1c0-b4774208ebd4}, !- Handle
  Temperature Schedule Type Limits,       !- Name
  ,                                       !- Lower Limit Value {BasedOnField A4}
  ,                                       !- Upper Limit Value {BasedOnField A4}
  Continuous,                             !- Numeric Type
  Temperature;                            !- Unit Type

OS:Schedule:Day,
  {1c0485f9-dbf8-4824-b4d6-cdeb55678c02}, !- Handle
  0800|1800|MidriseApartment|default|hw_loop_temp |default, !- Name
  {c402443f-a853-417f-a1c0-b4774208ebd4}, !- Schedule Type Limits Name
  ,                                       !- Interpolate to Timestep
  24,                                     !- Hour 1
  0,                                      !- Minute 1
  60.0000000000001;                       !- Value Until Time 1

OS:Schedule:Day,
  {140ce24f-76e2-4b5f-9374-a21c5d67904e}, !- Handle
  0800|1800|MidriseApartment|default|hw_loop_temp Summer Design Day, !- Name
  {c402443f-a853-417f-a1c0-b4774208ebd4}, !- Schedule Type Limits Name
  ,                                       !- Interpolate to Timestep
  24,                                     !- Hour 1
  0,                                      !- Minute 1
  60.0000000000001;                       !- Value Until Time 1

OS:Schedule:Day,
  {a9b13da0-3916-4d2b-81fe-27c3feb03a26}, !- Handle
  0800|1800|MidriseApartment|default|hw_loop_temp Winter Design Day, !- Name
  {c402443f-a853-417f-a1c0-b4774208ebd4}, !- Schedule Type Limits Name
  ,                                       !- Interpolate to Timestep
  24,                                     !- Hour 1
  0,                                      !- Minute 1
  60.0000000000001;                       !- Value Until Time 1

OS:Schedule:Ruleset,
  {95f06a1e-379c-4085-9b75-8d7abb56b9e5}, !- Handle
  0800|1800|MidriseApartment|Office|infiltration, !- Name
  {615a5f71-b564-407b-8dd0-67ad40784b23}, !- Schedule Type Limits Name
  {efd4615e-0430-483b-ba1a-6cbb83eb73a7}, !- Default Day Schedule Name
  {7479e9bc-54d0-44f1-85ba-872e6db51a7d}, !- Summer Design Day Schedule Name
  {f0c49dea-bc82-4d56-8439-1a7bfbbd1599}; !- Winter Design Day Schedule Name

OS:ScheduleTypeLimits,
  {615a5f71-b564-407b-8dd0-67ad40784b23}, !- Handle
  Fraction Schedule Type Limits,          !- Name
  0,                                      !- Lower Limit Value {BasedOnField A4}
  1,                                      !- Upper Limit Value {BasedOnField A4}
  Continuous,                             !- Numeric Type
  Dimensionless;                          !- Unit Type

OS:Schedule:Day,
  {efd4615e-0430-483b-ba1a-6cbb83eb73a7}, !- Handle
  0800|1800|MidriseApartment|Office|infiltration |default, !- Name
  {615a5f71-b564-407b-8dd0-67ad40784b23}, !- Schedule Type Limits Name
  ,                                       !- Interpolate to Timestep
  8,                                      !- Hour 1
  0,                                      !- Minute 1
  1,                                      !- Value Until Time 1
  17,                                     !- Hour 2
  0,                                      !- Minute 2
  0.25,                                   !- Value Until Time 2
  24,                                     !- Hour 3
  0,                                      !- Minute 3
  1;                                      !- Value Until Time 3

OS:Schedule:Day,
  {7479e9bc-54d0-44f1-85ba-872e6db51a7d}, !- Handle
  0800|1800|MidriseApartment|Office|infiltration Summer Design Day, !- Name
  {615a5f71-b564-407b-8dd0-67ad40784b23}, !- Schedule Type Limits Name
  ,                                       !- Interpolate to Timestep
  8,                                      !- Hour 1
  0,                                      !- Minute 1
  1,                                      !- Value Until Time 1
  17,                                     !- Hour 2
  0,                                      !- Minute 2
  0.25,                                   !- Value Until Time 2
  24,                                     !- Hour 3
  0,                                      !- Minute 3
  1;                                      !- Value Until Time 3

OS:Schedule:Day,
  {f0c49dea-bc82-4d56-8439-1a7bfbbd1599}, !- Handle
  0800|1800|MidriseApartment|Office|infiltration Winter Design Day, !- Name
  {615a5f71-b564-407b-8dd0-67ad40784b23}, !- Schedule Type Limits Name
  ,                                       !- Interpolate to Timestep
  8,                                      !- Hour 1
  0,                                      !- Minute 1
  1,                                      !- Value Until Time 1
  17,                                     !- Hour 2
  0,                                      !- Minute 2
  0.25,                                   !- Value Until Time 2
  24,                                     !- Hour 3
  0,                                      !- Minute 3
  1;                                      !- Value Until Time 3

OS:Schedule:Ruleset,
  {fa7ee989-39c1-49f8-9ef6-dc36e5b713a8}, !- Handle
  0800|1800|MidriseApartment|default|clothing, !- Name
  {221cd71c-6063-4723-94fe-afc4f2300e28}, !- Schedule Type Limits Name
  {5b5f11b5-19a9-4340-a69a-ccaab0b18016}, !- Default Day Schedule Name
  {2f40be31-158a-441a-88c5-8d08fa3bf425}, !- Summer Design Day Schedule Name
  {bc4f173e-a6a7-4cbe-82cd-7d91fdf166e8}; !- Winter Design Day Schedule Name

OS:ScheduleTypeLimits,
  {221cd71c-6063-4723-94fe-afc4f2300e28}, !- Handle
  Dimensionless Schedule Type Limits,     !- Name
  ,                                       !- Lower Limit Value {BasedOnField A4}
  ,                                       !- Upper Limit Value {BasedOnField A4}
  Continuous,                             !- Numeric Type
  Dimensionless;                          !- Unit Type

OS:Schedule:Day,
  {5b5f11b5-19a9-4340-a69a-ccaab0b18016}, !- Handle
  0800|1800|MidriseApartment|default|clothing |default, !- Name
  {221cd71c-6063-4723-94fe-afc4f2300e28}, !- Schedule Type Limits Name
  ,                                       !- Interpolate to Timestep
  24,                                     !- Hour 1
  0,                                      !- Minute 1
  0.9;                                    !- Value Until Time 1

OS:Schedule:Day,
  {2f40be31-158a-441a-88c5-8d08fa3bf425}, !- Handle
  0800|1800|MidriseApartment|default|clothing Summer Design Day, !- Name
  {221cd71c-6063-4723-94fe-afc4f2300e28}, !- Schedule Type Limits Name
  ,                                       !- Interpolate to Timestep
  24,                                     !- Hour 1
  0,                                      !- Minute 1
  0.9;                                    !- Value Until Time 1

OS:Schedule:Day,
  {bc4f173e-a6a7-4cbe-82cd-7d91fdf166e8}, !- Handle
  0800|1800|MidriseApartment|default|clothing Winter Design Day, !- Name
  {221cd71c-6063-4723-94fe-afc4f2300e28}, !- Schedule Type Limits Name
  ,                                       !- Interpolate to Timestep
  24,                                     !- Hour 1
  0,                                      !- Minute 1
  0.9;                                    !- Value Until Time 1

OS:Schedule:Rule,
  {d8cf05b8-d057-4229-ac9a-9592ba554baa}, !- Handle
  0800|1800|MidriseApartment|default|clothing |7/1-9/30|Mon/Tue/Wed/Thu/Fri/Sat/Sun Rule, !- Name
  {fa7ee989-39c1-49f8-9ef6-dc36e5b713a8}, !- Schedule Ruleset Name
  0,                                      !- Rule Order
  {eeb8c580-241e-4e71-b273-8cf1cae60d7b}, !- Day Schedule Name
  Yes,                                    !- Apply Sunday
  Yes,                                    !- Apply Monday
  Yes,                                    !- Apply Tuesday
  Yes,                                    !- Apply Wednesday
  Yes,                                    !- Apply Thursday
  Yes,                                    !- Apply Friday
  Yes,                                    !- Apply Saturday
  ,                                       !- Apply Holiday
  DateRange,                              !- Date Specification Type
  7,                                      !- Start Month
  1,                                      !- Start Day
  9,                                      !- End Month
  30;                                     !- End Day

OS:Schedule:Day,
  {eeb8c580-241e-4e71-b273-8cf1cae60d7b}, !- Handle
  0800|1800|MidriseApartment|default|clothing |7/1-9/30|Mon/Tue/Wed/Thu/Fri/Sat/Sun, !- Name
  {221cd71c-6063-4723-94fe-afc4f2300e28}, !- Schedule Type Limits Name
  ,                                       !- Interpolate to Timestep
  24,                                     !- Hour 1
  0,                                      !- Minute 1
  0.7;                                    !- Value Until Time 1

OS:Schedule:Rule,
  {96bab69e-df8c-4bb2-a03f-c6509b8dde7a}, !- Handle
  0800|1800|MidriseApartment|default|clothing |12/1-3/31|Mon/Tue/Wed/Thu/Fri/Sat/Sun Rule, !- Name
  {fa7ee989-39c1-49f8-9ef6-dc36e5b713a8}, !- Schedule Ruleset Name
  1,                                      !- Rule Order
  {a59b1e57-5c34-4c49-99f3-f50799cdae19}, !- Day Schedule Name
  Yes,                                    !- Apply Sunday
  Yes,                                    !- Apply Monday
  Yes,                                    !- Apply Tuesday
  Yes,                                    !- Apply Wednesday
  Yes,                                    !- Apply Thursday
  Yes,                                    !- Apply Friday
  Yes,                                    !- Apply Saturday
  ,                                       !- Apply Holiday
  DateRange,                              !- Date Specification Type
  12,                                     !- Start Month
  1,                                      !- Start Day
  3,                                      !- End Month
  31;                                     !- End Day

OS:Schedule:Day,
  {a59b1e57-5c34-4c49-99f3-f50799cdae19}, !- Handle
  0800|1800|MidriseApartment|default|clothing |12/1-3/31|Mon/Tue/Wed/Thu/Fri/Sat/Sun, !- Name
  {221cd71c-6063-4723-94fe-afc4f2300e28}, !- Schedule Type Limits Name
  ,                                       !- Interpolate to Timestep
  24,                                     !- Hour 1
  0,                                      !- Minute 1
  1.3;                                    !- Value Until Time 1

OS:Schedule:Ruleset,
  {0b854966-865c-44a7-b5f9-6c1a60f30ff8}, !- Handle
  0800|1800|MidriseApartment|Apartment|gas_equip, !- Name
  {046b5e73-513d-4934-a8a5-aefdde8dcd3b}, !- Schedule Type Limits Name
  {1fdbd8a2-5790-4644-a5b5-60a6a8cabb1b}, !- Default Day Schedule Name
  {c23edd29-f829-419d-931c-ce96569aae20}, !- Summer Design Day Schedule Name
  {122524f3-56ef-4d5d-9ca7-17329acc1fd8}; !- Winter Design Day Schedule Name

OS:ScheduleTypeLimits,
  {046b5e73-513d-4934-a8a5-aefdde8dcd3b}, !- Handle
  Equipment Schedule Type Limits,         !- Name
  0,                                      !- Lower Limit Value {BasedOnField A4}
  1,                                      !- Upper Limit Value {BasedOnField A4}
  Continuous,                             !- Numeric Type
  Dimensionless;                          !- Unit Type

OS:Schedule:Day,
  {1fdbd8a2-5790-4644-a5b5-60a6a8cabb1b}, !- Handle
  0800|1800|MidriseApartment|Apartment|gas_equip |default, !- Name
  {046b5e73-513d-4934-a8a5-aefdde8dcd3b}, !- Schedule Type Limits Name
  ,                                       !- Interpolate to Timestep
  1,                                      !- Hour 1
  0,                                      !- Minute 1
  0.45,                                   !- Value Until Time 1
  2,                                      !- Hour 2
  0,                                      !- Minute 2
  0.41,                                   !- Value Until Time 2
  3,                                      !- Hour 3
  0,                                      !- Minute 3
  0.39,                                   !- Value Until Time 3
  5,                                      !- Hour 4
  0,                                      !- Minute 4
  0.38,                                   !- Value Until Time 4
  6,                                      !- Hour 5
  0,                                      !- Minute 5
  0.43,                                   !- Value Until Time 5
  7,                                      !- Hour 6
  0,                                      !- Minute 6
  0.54,                                   !- Value Until Time 6
  8,                                      !- Hour 7
  0,                                      !- Minute 7
  0.65,                                   !- Value Until Time 7
  9,                                      !- Hour 8
  0,                                      !- Minute 8
  0.66,                                   !- Value Until Time 8
  10,                                     !- Hour 9
  0,                                      !- Minute 9
  0.67,                                   !- Value Until Time 9
  11,                                     !- Hour 10
  0,                                      !- Minute 10
  0.69,                                   !- Value Until Time 10
  12,                                     !- Hour 11
  0,                                      !- Minute 11
  0.7,                                    !- Value Until Time 11
  13,                                     !- Hour 12
  0,                                      !- Minute 12
  0.69,                                   !- Value Until Time 12
  14,                                     !- Hour 13
  0,                                      !- Minute 13
  0.66,                                   !- Value Until Time 13
  15,                                     !- Hour 14
  0,                                      !- Minute 14
  0.65,                                   !- Value Until Time 14
  16,                                     !- Hour 15
  0,                                      !- Minute 15
  0.68,                                   !- Value Until Time 15
  17,                                     !- Hour 16
  0,                                      !- Minute 16
  0.8,                                    !- Value Until Time 16
  19,                                     !- Hour 17
  0,                                      !- Minute 17
  1,                                      !- Value Until Time 17
  20,                                     !- Hour 18
  0,                                      !- Minute 18
  0.93,                                   !- Value Until Time 18
  21,                                     !- Hour 19
  0,                                      !- Minute 19
  0.89,                                   !- Value Until Time 19
  22,                                     !- Hour 20
  0,                                      !- Minute 20
  0.85,                                   !- Value Until Time 20
  23,                                     !- Hour 21
  0,                                      !- Minute 21
  0.71,                                   !- Value Until Time 21
  24,                                     !- Hour 22
  0,                                      !- Minute 22
  0.58;                                   !- Value Until Time 22

OS:Schedule:Day,
  {c23edd29-f829-419d-931c-ce96569aae20}, !- Handle
  0800|1800|MidriseApartment|Apartment|gas_equip Summer Design Day, !- Name
  {046b5e73-513d-4934-a8a5-aefdde8dcd3b}, !- Schedule Type Limits Name
  ,                                       !- Interpolate to Timestep
  24,                                     !- Hour 1
  0,                                      !- Minute 1
  1;                                      !- Value Until Time 1

OS:Schedule:Day,
  {122524f3-56ef-4d5d-9ca7-17329acc1fd8}, !- Handle
  0800|1800|MidriseApartment|Apartment|gas_equip Winter Design Day, !- Name
  {046b5e73-513d-4934-a8a5-aefdde8dcd3b}, !- Schedule Type Limits Name
  ,                                       !- Interpolate to Timestep
  24,                                     !- Hour 1
  0,                                      !- Minute 1
  0.38;                                   !- Value Until Time 1

OS:Schedule:Ruleset,
  {707fb3e2-5478-491c-8156-3dbc793aac1b}, !- Handle
  0800|1800|MidriseApartment|Office|elec_equip, !- Name
  {046b5e73-513d-4934-a8a5-aefdde8dcd3b}, !- Schedule Type Limits Name
  {efb982a7-476f-401b-bd44-8802bd02b0c2}, !- Default Day Schedule Name
  {6afb568d-5f53-44b4-9a6c-513aa1b42acb}, !- Summer Design Day Schedule Name
  {2479e1f4-8671-494a-981b-736d62d462ad}; !- Winter Design Day Schedule Name

OS:Schedule:Day,
  {efb982a7-476f-401b-bd44-8802bd02b0c2}, !- Handle
  0800|1800|MidriseApartment|Office|elec_equip |default, !- Name
  {046b5e73-513d-4934-a8a5-aefdde8dcd3b}, !- Schedule Type Limits Name
  ,                                       !- Interpolate to Timestep
  8,                                      !- Hour 1
  0,                                      !- Minute 1
  0,                                      !- Value Until Time 1
  12,                                     !- Hour 2