
OS:Version,
  {ae41d734-77a3-484f-a73c-96ffbfb67b73}, !- Handle
  1.5.5;                                  !- Version Identifier

OS:ClimateZones,
  {135edfab-17e7-40db-a436-27d385a8cd6d}, !- Handle
  ,                                       !- Active Institution
  ,                                       !- Active Year
  ASHRAE,                                 !- Climate Zone Institution Name 1
  ANSI/ASHRAE Standard 169,               !- Climate Zone Document Name 1
  2006,                                   !- Climate Zone Document Year 1
  ,                                       !- Climate Zone Value 1
  CEC,                                    !- Climate Zone Institution Name 2
  California Climate Zone Descriptions,   !- Climate Zone Document Name 2
  1995,                                   !- Climate Zone Document Year 2
  ;                                       !- Climate Zone Value 2

OS:YearDescription,
  {513d8dda-86cb-442a-b01c-1f7f0e0ac70e}; !- Handle

OS:RadianceParameters,
  {270a96f1-3c86-4b75-a667-cdf22790e2c8}, !- Handle
  1,                                      !- Accumulated Rays per Record
  0,                                      !- Direct Threshold
  1,                                      !- Direct Certainty
  1,                                      !- Direct Jitter
  1,                                      !- Direct Pretest
  6,                                      !- Ambient Bounces VMX
  2,                                      !- Ambient Bounces DMX
  4050,                                   !- Ambient Divisions VMX
  512,                                    !- Ambient Divisions DMX
  256,                                    !- Ambient Supersamples
  0.001,                                  !- Limit Weight VMX
  0.001,                                  !- Limit Weight DMX
  500,                                    !- Klems Sampling Density
  146;                                    !- Sky Discretization Resolution

OS:SimulationControl,
  {2c487a4c-bac9-4ac5-b669-1e49d9da7c2b}, !- Handle
  ,                                       !- Do Zone Sizing Calculation
  ,                                       !- Do System Sizing Calculation
  ,                                       !- Do Plant Sizing Calculation
  No,                                     !- Run Simulation for Sizing Periods
  ,                                       !- Run Simulation for Weather File Run Periods
  0.04,                                   !- Loads Convergence Tolerance Value
  ,                                       !- Temperature Convergence Tolerance Value {deltaC}
  ,                                       !- Solar Distribution
  ,                                       !- Maximum Number of Warmup Days
  2;                                      !- Minimum Number of Warmup Days

OS:Sizing:Parameters,
  {dde5af6f-7923-4600-a28a-7556673a0266}, !- Handle
  1.25,                                   !- Heating Sizing Factor
  1.15;                                   !- Cooling Sizing Factor

OS:ProgramControl,
  {05027a99-f2b3-4aeb-afc6-1425fbb4371d}; !- Handle

OS:Timestep,
  {4ebc9f1e-4707-402e-9844-67eb1ffbd522}, !- Handle
  2;                                      !- Number of Timesteps per Hour

OS:OutputControl:ReportingTolerances,
  {65797aa2-06a9-45fe-b69d-bc6e060399d3}; !- Handle

OS:ConvergenceLimits,
  {9fc11aba-8822-4f3d-970c-46391ba4040d}; !- Handle

OS:ShadowCalculation,
  {ca758bea-4416-4626-9bba-3d8795c79bd6}, !- Handle
  7,                                      !- Calculation Frequency
  15000;                                  !- Maximum Figures in Shadow Overlap Calculations

OS:SurfaceConvectionAlgorithm:Inside,
  {aaabfc36-718a-4ab0-b622-f186ebb45230}, !- Handle
  TARP;                                   !- Algorithm

OS:SurfaceConvectionAlgorithm:Outside,
  {9a0a9f6f-4bbd-4b12-a121-9492a1fcd7d6}, !- Handle
  DOE-2;                                  !- Algorithm

OS:HeatBalanceAlgorithm,
  {9d93e563-e1e0-46d7-9e39-d1c8aceb7212}, !- Handle
  ConductionTransferFunction,             !- Algorithm
  200;                                    !- Surface Temperature Upper Limit {F}

OS:ZoneAirHeatBalanceAlgorithm,
  {8520d93e-310f-4696-9bcd-36228bfdd743}, !- Handle
  AnalyticalSolution;                     !- Algorithm

OS:ZoneAirContaminantBalance,
  {eb5fc3ae-fb22-4160-8fcb-3e3b22b000d3}; !- Handle

OS:ZoneCapacitanceMultiplier:ResearchSpecial,
  {4020ce4f-5a7a-4849-8028-8305d7b751b1}, !- Handle
  ,                                       !- Temperature Capacity Multiplier
  ,                                       !- Humidity Capacity Multiplier
  ;                                       !- Carbon Dioxide Capacity Multiplier

OS:RunPeriod,
  {28df894d-6af9-4fb8-8f56-df1753344aa3}, !- Handle
  Run Period 1,                           !- Name
  1,                                      !- Begin Month
  1,                                      !- Begin Day of Month
  12,                                     !- End Month
  31,                                     !- End Day of Month
  ,                                       !- Use Weather File Holidays and Special Days
  ,                                       !- Use Weather File Daylight Saving Period
  ,                                       !- Apply Weekend Holiday Rule
  ,                                       !- Use Weather File Rain Indicators
  ,                                       !- Use Weather File Snow Indicators
  ;                                       !- Number of Times Runperiod to be Repeated

OS:Building,
  {bf305633-c5a1-4881-9edf-ca5e1a8e1274}, !- Handle
  Building 1,                             !- Name
  ,                                       !- Building Sector Type
  ,                                       !- North Axis {deg}
  ,                                       !- Nominal Floor to Floor Height {m}
  ,                                       !- Space Type Name
  ,                                       !- Default Construction Set Name
  {f7d127fb-8336-4f33-924c-5bc95a704e14}, !- Default Schedule Set Name
  ,                                       !- Standards Number of Stories
  ,                                       !- Standards Number of Above Ground Stories
  SmallHotel;                             !- Standards Building Type

OS:LifeCycleCost:Parameters,
  {231cf8a0-f0e7-4251-a99f-11f0d464e661}, !- Handle
  FEMP,                                   !- Analysis Type
  ,                                       !- Discounting Convention
  ,                                       !- Inflation Approach
  ,                                       !- Real Discount Rate
  ,                                       !- Nominal Discount Rate
  ,                                       !- Inflation
  ,                                       !- Base Date Month
  ,                                       !- Base Date Year
  ,                                       !- Service Date Month
  ,                                       !- Service Date Year
  ,                                       !- Length of Study Period in Years
  ,                                       !- Tax Rate
  ,                                       !- Depreciation Method
  Yes;                                    !- Use NIST Fuel Escalation Rates

OS:Facility,
  {3ba8e45b-b833-44eb-a723-ea6c3946dc96}; !- Handle

OS:SpaceType,
  {0801513a-0d94-44b5-9ce7-f761840e5f78}, !- Handle
  SmallHotel|BlendGuest|DOE Ref 2004|ASHRAE 169-2006-5A, !- Name
  {7419aa4c-4c41-4087-9609-5db90601f3fa}, !- Default Construction Set Name
  ,                                       !- Default Schedule Set Name
  {5360f7ef-50b9-47e9-b0ca-8a1abb9e5bf8}, !- Group Rendering Name
  {d87a652e-7fd9-421d-afdd-6124b87b825c}, !- Design Specification Outdoor Air Object Name
  SmallHotel,                             !- Standards Building Type
  BlendGuest;                             !- Standards Space Type

OS:Rendering:Color,
  {5360f7ef-50b9-47e9-b0ca-8a1abb9e5bf8}, !- Handle
  Rendering Color 1,                      !- Name
  78,                                     !- Rendering Red Value
  167,                                    !- Rendering Green Value
  222;                                    !- Rendering Blue Value

OS:SpaceType,
  {f2a0d6c4-9325-4e17-b197-99b18aa5d6cd}, !- Handle
  SmallHotel|BlendMtg|DOE Ref 2004|ASHRAE 169-2006-5A, !- Name
  {7419aa4c-4c41-4087-9609-5db90601f3fa}, !- Default Construction Set Name
  ,                                       !- Default Schedule Set Name
  {4dfb95c9-0fc3-4648-9350-c00b0937eefd}, !- Group Rendering Name
  {252eb201-4920-413b-b52b-3a59fa832a9e}, !- Design Specification Outdoor Air Object Name
  SmallHotel,                             !- Standards Building Type
  BlendMtg;                               !- Standards Space Type

OS:Rendering:Color,
  {4dfb95c9-0fc3-4648-9350-c00b0937eefd}, !- Handle
  Rendering Color 2,                      !- Name
  120,                                    !- Rendering Red Value
  230,                                    !- Rendering Green Value
  199;                                    !- Rendering Blue Value

OS:SpaceType,
  {64e37469-a6e2-4839-baa3-6e66a5d413fc}, !- Handle
  SmallHotel|BlendMisc|DOE Ref 2004|ASHRAE 169-2006-5A, !- Name
  {7419aa4c-4c41-4087-9609-5db90601f3fa}, !- Default Construction Set Name
  ,                                       !- Default Schedule Set Name
  {eca18cf9-8f4b-4d60-aa5f-569a11fbf737}, !- Group Rendering Name
  {f7583a52-82ff-473b-b3f0-d10e3e3dd6ed}, !- Design Specification Outdoor Air Object Name
  SmallHotel,                             !- Standards Building Type
  BlendMisc;                              !- Standards Space Type

OS:Rendering:Color,
  {eca18cf9-8f4b-4d60-aa5f-569a11fbf737}, !- Handle
  Rendering Color 3,                      !- Name
  230,                                    !- Rendering Red Value
  157,                                    !- Rendering Green Value
  120;                                    !- Rendering Blue Value

OS:SpaceType,
  {6fe7ecf2-df60-4aaa-aed9-482384aff3c1}, !- Handle
  SmallHotel|Laundry|DOE Ref 2004|ASHRAE 169-2006-5A, !- Name
  {7419aa4c-4c41-4087-9609-5db90601f3fa}, !- Default Construction Set Name
  {e2f564bc-782f-449c-81da-1539050db689}, !- Default Schedule Set Name
  {2bc2048a-c5b8-4696-ba73-50f295735132}, !- Group Rendering Name
  {e3b24170-1e92-4309-bbd2-191e88e011bf}, !- Design Specification Outdoor Air Object Name
  SmallHotel,                             !- Standards Building Type
  Laundry;                                !- Standards Space Type

OS:Rendering:Color,
  {2bc2048a-c5b8-4696-ba73-50f295735132}, !- Handle
  Rendering Color 4,                      !- Name
  120,                                    !- Rendering Red Value
  149,                                    !- Rendering Green Value
  230;                                    !- Rendering Blue Value

OS:SpaceType,
  {6eeb5f07-1ba3-49e7-947a-a8f7ebcb88a3}, !- Handle
  SmallHotel|Exercise|DOE Ref 2004|ASHRAE 169-2006-5A, !- Name
  {7419aa4c-4c41-4087-9609-5db90601f3fa}, !- Default Construction Set Name
  {d0715437-93fb-4ca0-b921-6c026d6790f6}, !- Default Schedule Set Name
  {9536298f-a7a7-443d-bd13-a8467a912ce9}, !- Group Rendering Name
  {d1e3f0c2-78e5-4c3c-b68d-d6a96fa0a232}, !- Design Specification Outdoor Air Object Name
  SmallHotel,                             !- Standards Building Type
  Exercise;                               !- Standards Space Type

OS:Rendering:Color,
  {9536298f-a7a7-443d-bd13-a8467a912ce9}, !- Handle
  Rendering Color 5,                      !- Name
  154,                                    !- Rendering Red Value
  230,                                    !- Rendering Green Value
  120;                                    !- Rendering Blue Value

OS:Schedule:Ruleset,
  {e814ab42-4d07-4c59-9393-d2e8a227daeb}, !- Handle
  0600|2200|SmallHotel|default|hoo,       !- Name
  {5f2abd67-4dae-49da-aeff-fce84a7a94a6}, !- Schedule Type Limits Name
  {eeb9a44d-fa4d-4573-878d-eea03674f01a}, !- Default Day Schedule Name
  {d537e31d-e610-4b3e-b4a3-fc837075080f}, !- Summer Design Day Schedule Name
  {193ec987-e2c6-402d-ab18-83726f2a0989}; !- Winter Design Day Schedule Name

OS:Schedule:Day,
  {eeb9a44d-fa4d-4573-878d-eea03674f01a}, !- Handle
  0600|2200|SmallHotel|default|hoo Schedule Week Day, !- Name
  {5f2abd67-4dae-49da-aeff-fce84a7a94a6}, !- Schedule Type Limits Name
  ,                                       !- Interpolate to Timestep
  6,                                      !- Hour 1
  0,                                      !- Minute 1
  0,                                      !- Value Until Time 1
  22,                                     !- Hour 2
  0,                                      !- Minute 2
  1,                                      !- Value Until Time 2
  24,                                     !- Hour 3
  0,                                      !- Minute 3
  0;                                      !- Value Until Time 3

OS:Schedule:Day,
  {038550a4-80be-4856-b3ee-66a3ddf4cc90}, !- Handle
  Schedule Day 2,                         !- Name
  ,                                       !- Schedule Type Limits Name
  ,                                       !- Interpolate to Timestep
  24,                                     !- Hour 1
  0,                                      !- Minute 1
  0;                                      !- Value Until Time 1

OS:Schedule:Day,
  {193ec987-e2c6-402d-ab18-83726f2a0989}, !- Handle
  0600|2200|SmallHotel|default|hoo Winter Design Day, !- Name
  {5f2abd67-4dae-49da-aeff-fce84a7a94a6}, !- Schedule Type Limits Name
  ,                                       !- Interpolate to Timestep
  24,                                     !- Hour 1
  0,                                      !- Minute 1
  0;                                      !- Value Until Time 1

OS:Schedule:Day,
  {71bcfe50-075b-40b7-84a4-581a0fe9445f}, !- Handle
  Schedule Day 3,                         !- Name
  ,                                       !- Schedule Type Limits Name
  ,                                       !- Interpolate to Timestep
  24,                                     !- Hour 1
  0,                                      !- Minute 1
  0;                                      !- Value Until Time 1

OS:Schedule:Day,
  {d537e31d-e610-4b3e-b4a3-fc837075080f}, !- Handle
  0600|2200|SmallHotel|default|hoo Summer Design Day, !- Name
  {5f2abd67-4dae-49da-aeff-fce84a7a94a6}, !- Schedule Type Limits Name
  ,                                       !- Interpolate to Timestep
  24,                                     !- Hour 1
  0,                                      !- Minute 1
  1;                                      !- Value Until Time 1

OS:DefaultScheduleSet,
  {f7d127fb-8336-4f33-924c-5bc95a704e14}, !- Handle
  Building Hours of Operation,            !- Name
  {e814ab42-4d07-4c59-9393-d2e8a227daeb}, !- Hours of Operation Schedule Name
  ,                                       !- Number of People Schedule Name
  ,                                       !- People Activity Level Schedule Name
  ,                                       !- Lighting Schedule Name
  ,                                       !- Electric Equipment Schedule Name
  ,                                       !- Gas Equipment Schedule Name
  ,                                       !- Hot Water Equipment Schedule Name
  ,                                       !- Infiltration Schedule Name
  ,                                       !- Steam Equipment Schedule Name
  ;                                       !- Other Equipment Schedule Name

OS:ScheduleTypeLimits,
  {5f2abd67-4dae-49da-aeff-fce84a7a94a6}, !- Handle
  OnOff,                                  !- Name
  0,                                      !- Lower Limit Value {BasedOnField A4}
  1,                                      !- Upper Limit Value {BasedOnField A4}
  Discrete,                               !- Numeric Type
  Availability;                           !- Unit Type

OS:Schedule:Ruleset,
  {151a5208-15e9-4119-af05-e130f59c8ffb}, !- Handle
  0600|2200|SmallHotel|Storage|lighting,  !- Name
  {21cd4aac-28cf-4f4b-99c9-62e5418adcb9}, !- Schedule Type Limits Name
  {2bff4c01-356b-4ee8-9006-6e5208fc4b82}, !- Default Day Schedule Name
  {79273f1f-1712-45e2-9472-38db41fbfc9f}, !- Summer Design Day Schedule Name
  {b51e872b-3dae-4d36-88a8-c4abb97b420f}; !- Winter Design Day Schedule Name

OS:ScheduleTypeLimits,
  {21cd4aac-28cf-4f4b-99c9-62e5418adcb9}, !- Handle
  Lights Schedule Type Limits,            !- Name
  0,                                      !- Lower Limit Value {BasedOnField A4}
  1,                                      !- Upper Limit Value {BasedOnField A4}
  Continuous,                             !- Numeric Type
  Dimensionless;                          !- Unit Type

OS:Schedule:Day,
  {2bff4c01-356b-4ee8-9006-6e5208fc4b82}, !- Handle
  0600|2200|SmallHotel|Storage|lighting |default, !- Name
  {21cd4aac-28cf-4f4b-99c9-62e5418adcb9}, !- Schedule Type Limits Name
  ,                                       !- Interpolate to Timestep
  7,                                      !- Hour 1
  0,                                      !- Minute 1
  0.1,                                    !- Value Until Time 1
  8,                                      !- Hour 2
  0,                                      !- Minute 2
  0.2,                                    !- Value Until Time 2
  18,                                     !- Hour 3
  0,                                      !- Minute 3
  0.4,                                    !- Value Until Time 3
  22,                                     !- Hour 4
  0,                                      !- Minute 4
  0.2,                                    !- Value Until Time 4
  24,                                     !- Hour 5
  0,                                      !- Minute 5
  0.1;                                    !- Value Until Time 5

OS:Schedule:Day,
  {79273f1f-1712-45e2-9472-38db41fbfc9f}, !- Handle
  0600|2200|SmallHotel|Storage|lighting Summer Design Day, !- Name
  {21cd4aac-28cf-4f4b-99c9-62e5418adcb9}, !- Schedule Type Limits Name
  ,                                       !- Interpolate to Timestep
  7,                                      !- Hour 1
  0,                                      !- Minute 1
  0.1,                                    !- Value Until Time 1
  8,                                      !- Hour 2
  0,                                      !- Minute 2
  0.2,                                    !- Value Until Time 2
  18,                                     !- Hour 3
  0,                                      !- Minute 3
  1,                                      !- Value Until Time 3
  22,                                     !- Hour 4
  0,                                      !- Minute 4
  0.2,                                    !- Value Until Time 4
  24,                                     !- Hour 5
  0,                                      !- Minute 5
  0.1;                                    !- Value Until Time 5

OS:Schedule:Day,
  {b51e872b-3dae-4d36-88a8-c4abb97b420f}, !- Handle
  0600|2200|SmallHotel|Storage|lighting Winter Design Day, !- Name
  {21cd4aac-28cf-4f4b-99c9-62e5418adcb9}, !- Schedule Type Limits Name
  ,                                       !- Interpolate to Timestep
  24,                                     !- Hour 1
  0,                                      !- Minute 1
  0.1;                                    !- Value Until Time 1

OS:Schedule:Ruleset,
  {4db26de0-d41f-418f-851a-94a2aaa6e1df}, !- Handle
  0600|2200|SmallHotel|Laundry|elec_equip, !- Name
  {c774a27f-2150-4637-b1c7-95108725cb5c}, !- Schedule Type Limits Name
  {d82ffc16-e859-4d3a-9e6e-7f4295ed863a}, !- Default Day Schedule Name
  {e64926c7-5765-4c4e-a72a-4b89ef95368c}, !- Summer Design Day Schedule Name
  {481445b1-d86c-4b73-955e-14ca7174f084}; !- Winter Design Day Schedule Name

OS:ScheduleTypeLimits,
  {c774a27f-2150-4637-b1c7-95108725cb5c}, !- Handle
  Equipment Schedule Type Limits,         !- Name
  0,                                      !- Lower Limit Value {BasedOnField A4}
  1,                                      !- Upper Limit Value {BasedOnField A4}
  Continuous,                             !- Numeric Type
  Dimensionless;                          !- Unit Type

OS:Schedule:Day,
  {d82ffc16-e859-4d3a-9e6e-7f4295ed863a}, !- Handle
  0600|2200|SmallHotel|Laundry|elec_equip |default, !- Name
  {c774a27f-2150-4637-b1c7-95108725cb5c}, !- Schedule Type Limits Name
  ,                                       !- Interpolate to Timestep
  8,                                      !- Hour 1
  0,                                      !- Minute 1
  0,                                      !- Value Until Time 1
  16,                                     !- Hour 2
  0,                                      !- Minute 2
  1,                                      !- Value Until Time 2
  24,                                     !- Hour 3
  0,                                      !- Minute 3
  0;                                      !- Value Until Time 3

OS:Schedule:Day,
  {e64926c7-5765-4c4e-a72a-4b89ef95368c}, !- Handle
  0600|2200|SmallHotel|Laundry|elec_equip Summer Design Day, !- Name
  {c774a27f-2150-4637-b1c7-95108725cb5c}, !- Schedule Type Limits Name
  ,                                       !- Interpolate to Timestep
  8,                                      !- Hour 1
  0,                                      !- Minute 1
  0,                                      !- Value Until Time 1
  16,                                     !- Hour 2
  0,                                      !- Minute 2
  1,                                      !- Value Until Time 2
  24,                                     !- Hour 3
  0,                                      !- Minute 3
  0;                                      !- Value Until Time 3

OS:Schedule:Day,
  {481445b1-d86c-4b73-955e-14ca7174f084}, !- Handle
  0600|2200|SmallHotel|Laundry|elec_equip Winter Design Day, !- Name
  {c774a27f-2150-4637-b1c7-95108725cb5c}, !- Schedule Type Limits Name
  ,                                       !- Interpolate to Timestep
  24,                                     !- Hour 1
  0,                                      !- Minute 1
  0;                                      !- Value Until Time 1

OS:Schedule:Ruleset,
  {4bffd18a-7b26-4153-8d65-ecba08eb5899}, !- Handle
  0600|2200|SmallHotel|Office|occ,        !- Name
  {65fc3203-f65c-4ca5-b06d-0819679ccc29}, !- Schedule Type Limits Name
  {98c81368-3b06-45fa-a12f-84fca59a4d50}, !- Default Day Schedule Name
  {32c79cb2-2fd4-4e54-bc37-fb319d2c2652}, !- Summer Design Day Schedule Name
  {de4d782c-5286-4712-ba20-2634e2ceb260}; !- Winter Design Day Schedule Name

OS:ScheduleTypeLimits,
  {65fc3203-f65c-4ca5-b06d-0819679ccc29}, !- Handle
  Occupancy Schedule Type Limits,         !- Name
  0,                                      !- Lower Limit Value {BasedOnField A4}
  1,                                      !- Upper Limit Value {BasedOnField A4}
  Continuous,                             !- Numeric Type
  Dimensionless;                          !- Unit Type

OS:Schedule:Day,
  {98c81368-3b06-45fa-a12f-84fca59a4d50}, !- Handle
  0600|2200|SmallHotel|Office|occ |default, !- Name
  {65fc3203-f65c-4ca5-b06d-0819679ccc29}, !- Schedule Type Limits Name
  ,                                       !- Interpolate to Timestep
  6,                                      !- Hour 1
  0,                                      !- Minute 1
  0.2,                                    !- Value Until Time 1
  7,                                      !- Hour 2
  0,                                      !- Minute 2
  0.3,                                    !- Value Until Time 2
  8,                                      !- Hour 3
  0,                                      !- Minute 3
  0.4,                                    !- Value Until Time 3
  12,                                     !- Hour 4
  0,                                      !- Minute 4
  1,                                      !- Value Until Time 4
  13,                                     !- Hour 5
  0,                                      !- Minute 5
  0.5,                                    !- Value Until Time 5
  17,                                     !- Hour 6
  0,                                      !- Minute 6
  1,                                      !- Value Until Time 6
  18,                                     !- Hour 7
  0,                                      !- Minute 7
  0.4,                                    !- Value Until Time 7
  19,                                     !- Hour 8
  0,                                      !- Minute 8
  0.3,                                    !- Value Until Time 8
  24,                                     !- Hour 9
  0,                                      !- Minute 9
  0.2;                                    !- Value Until Time 9

OS:Schedule:Day,
  {32c79cb2-2fd4-4e54-bc37-fb319d2c2652}, !- Handle
  0600|2200|SmallHotel|Office|occ Summer Design Day, !- Name
  {65fc3203-f65c-4ca5-b06d-0819679ccc29}, !- Schedule Type Limits Name
  ,                                       !- Interpolate to Timestep
  6,                                      !- Hour 1
  0,                                      !- Minute 1
  0.2,                                    !- Value Until Time 1
  19,                                     !- Hour 2
  0,                                      !- Minute 2
  1,                                      !- Value Until Time 2
  24,                                     !- Hour 3
  0,                                      !- Minute 3
  0.2;                                    !- Value Until Time 3

OS:Schedule:Day,
  {de4d782c-5286-4712-ba20-2634e2ceb260}, !- Handle
  0600|2200|SmallHotel|Office|occ Winter Design Day, !- Name
  {65fc3203-f65c-4ca5-b06d-0819679ccc29}, !- Schedule Type Limits Name
  ,                                       !- Interpolate to Timestep
  24,                                     !- Hour 1
  0,                                      !- Minute 1
  0;                                      !- Value Until Time 1

OS:Schedule:Rule,
  {bde0a905-7fc2-43f6-938f-3fa19c134a94}, !- Handle
  0600|2200|SmallHotel|Office|occ |1/1-12/31|Sat/Sun Rule, !- Name
  {4bffd18a-7b26-4153-8d65-ecba08eb5899}, !- Schedule Ruleset Name
  0,                                      !- Rule Order
  {9ddcf14b-56eb-4785-95f1-3e80207f5599}, !- Day Schedule Name
  Yes,                                    !- Apply Sunday
  ,                                       !- Apply Monday
  ,                                       !- Apply Tuesday
  ,                                       !- Apply Wednesday
  ,                                       !- Apply Thursday
  ,                                       !- Apply Friday
  Yes,                                    !- Apply Saturday
  ,                                       !- Apply Holiday
  DateRange,                              !- Date Specification Type
  1,                                      !- Start Month
  1,                                      !- Start Day
  12,                                     !- End Month
  31;                                     !- End Day

OS:Schedule:Day,
  {9ddcf14b-56eb-4785-95f1-3e80207f5599}, !- Handle
  0600|2200|SmallHotel|Office|occ |1/1-12/31|Sat/Sun, !- Name
  {65fc3203-f65c-4ca5-b06d-0819679ccc29}, !- Schedule Type Limits Name
  ,                                       !- Interpolate to Timestep
  7,                                      !- Hour 1
  0,                                      !- Minute 1
  0.2,                                    !- Value Until Time 1
  8,                                      !- Hour 2
  0,                                      !- Minute 2
  0.3,                                    !- Value Until Time 2
  17,                                     !- Hour 3
  0,                                      !- Minute 3
  0.5,                                    !- Value Until Time 3
  18,                                     !- Hour 4
  0,                                      !- Minute 4
  0.3,                                    !- Value Until Time 4
  24,                                     !- Hour 5
  0,                                      !- Minute 5
  0.2;                                    !- Value Until Time 5

OS:Schedule:Ruleset,
  {de381629-b226-4c92-829b-0185091b4d84}, !- Handle
  0600|2200|SmallHotel|default|hvac,      !- Name
  {33ff99ca-bd85-41c6-b1bc-c464a73da29c}, !- Schedule Type Limits Name
  {55aa85ed-f0ca-4927-ad0b-c540b7c71dbe}, !- Default Day Schedule Name
  {36e21219-eb6d-440f-af4e-76172d8a024b}, !- Summer Design Day Schedule Name
  {73dde1cc-3106-4768-9083-6db56b376e32}; !- Winter Design Day Schedule Name

OS:ScheduleTypeLimits,
  {33ff99ca-bd85-41c6-b1bc-c464a73da29c}, !- Handle
  HVAC Operation Schedule Type Limits,    !- Name
  0,                                      !- Lower Limit Value {BasedOnField A4}
  1,                                      !- Upper Limit Value {BasedOnField A4}
  Discrete,                               !- Numeric Type
  Availability;                           !- Unit Type

OS:Schedule:Day,
  {55aa85ed-f0ca-4927-ad0b-c540b7c71dbe}, !- Handle
  0600|2200|SmallHotel|default|hvac |default, !- Name
  {33ff99ca-bd85-41c6-b1bc-c464a73da29c}, !- Schedule Type Limits Name
  ,                                       !- Interpolate to Timestep
  24,                                     !- Hour 1
  0,                                      !- Minute 1
  1;                                      !- Value Until Time 1

OS:Schedule:Day,
  {36e21219-eb6d-440f-af4e-76172d8a024b}, !- Handle
  0600|2200|SmallHotel|default|hvac Summer Design Day, !- Name
  {33ff99ca-bd85-41c6-b1bc-c464a73da29c}, !- Schedule Type Limits Name
  ,                                       !- Interpolate to Timestep
  24,                                     !- Hour 1