
OS:Version,
  {e7c3504f-7bce-4057-bb96-d7df55d89a6c}, !- Handle
  1.6.0;                                  !- Version Identifier

OS:ClimateZones,
  {135edfab-17e7-40db-a436-27d385a8cd6d}, !- Handle
  ,                                       !- Active Institution
  ,                                       !- Active Year
  ASHRAE,                                 !- Climate Zone Institution Name 1
  ANSI/ASHRAE Standard 169,               !- Climate Zone Document Name 1
  2006,                                   !- Climate Zone Document Year 1
  ,                                       !- Climate Zone Value 1
  CEC,                                    !- Climate Zone Institution Name 2
  California Climate Zone Descriptions,   !- Climate Zone Document Name 2
  1995,                                   !- Climate Zone Document Year 2
  ;                                       !- Climate Zone Value 2

OS:YearDescription,
  {513d8dda-86cb-442a-b01c-1f7f0e0ac70e}; !- Handle

OS:RadianceParameters,
  {270a96f1-3c86-4b75-a667-cdf22790e2c8}, !- Handle
  1,                                      !- Accumulated Rays per Record
  0,                                      !- Direct Threshold
  1,                                      !- Direct Certainty
  1,                                      !- Direct Jitter
  1,                                      !- Direct Pretest
  6,                                      !- Ambient Bounces VMX
  2,                                      !- Ambient Bounces DMX
  4050,                                   !- Ambient Divisions VMX
  512,                                    !- Ambient Divisions DMX
  256,                                    !- Ambient Supersamples
  0.001,                                  !- Limit Weight VMX
  0.001,                                  !- Limit Weight DMX
  500,                                    !- Klems Sampling Density
  146;                                    !- Sky Discretization Resolution

OS:SimulationControl,
  {2c487a4c-bac9-4ac5-b669-1e49d9da7c2b}, !- Handle
  ,                                       !- Do Zone Sizing Calculation
  ,                                       !- Do System Sizing Calculation
  ,                                       !- Do Plant Sizing Calculation
  No,                                     !- Run Simulation for Sizing Periods
  ,                                       !- Run Simulation for Weather File Run Periods
  0.04,                                   !- Loads Convergence Tolerance Value
  ,                                       !- Temperature Convergence Tolerance Value {deltaC}
  ,                                       !- Solar Distribution
  ,                                       !- Maximum Number of Warmup Days
  2;                                      !- Minimum Number of Warmup Days

OS:Sizing:Parameters,
  {dde5af6f-7923-4600-a28a-7556673a0266}, !- Handle
  1.25,                                   !- Heating Sizing Factor
  1.15;                                   !- Cooling Sizing Factor

OS:ProgramControl,
  {05027a99-f2b3-4aeb-afc6-1425fbb4371d}; !- Handle

OS:Timestep,
  {4ebc9f1e-4707-402e-9844-67eb1ffbd522}, !- Handle
  2;                                      !- Number of Timesteps per Hour

OS:OutputControl:ReportingTolerances,
  {65797aa2-06a9-45fe-b69d-bc6e060399d3}; !- Handle

OS:ConvergenceLimits,
  {9fc11aba-8822-4f3d-970c-46391ba4040d}; !- Handle

OS:ShadowCalculation,
  {ca758bea-4416-4626-9bba-3d8795c79bd6}, !- Handle
  7,                                      !- Calculation Frequency
  15000;                                  !- Maximum Figures in Shadow Overlap Calculations

OS:SurfaceConvectionAlgorithm:Inside,
  {aaabfc36-718a-4ab0-b622-f186ebb45230}, !- Handle
  TARP;                                   !- Algorithm

OS:SurfaceConvectionAlgorithm:Outside,
  {9a0a9f6f-4bbd-4b12-a121-9492a1fcd7d6}, !- Handle
  DOE-2;                                  !- Algorithm

OS:HeatBalanceAlgorithm,
  {9d93e563-e1e0-46d7-9e39-d1c8aceb7212}, !- Handle
  ConductionTransferFunction,             !- Algorithm
  200;                                    !- Surface Temperature Upper Limit {F}

OS:ZoneAirHeatBalanceAlgorithm,
  {8520d93e-310f-4696-9bcd-36228bfdd743}, !- Handle
  AnalyticalSolution;                     !- Algorithm

OS:ZoneAirContaminantBalance,
  {eb5fc3ae-fb22-4160-8fcb-3e3b22b000d3}; !- Handle

OS:ZoneCapacitanceMultiplier:ResearchSpecial,
  {4020ce4f-5a7a-4849-8028-8305d7b751b1}, !- Handle
  ,                                       !- Temperature Capacity Multiplier
  ,                                       !- Humidity Capacity Multiplier
  ;                                       !- Carbon Dioxide Capacity Multiplier

OS:RunPeriod,
  {28df894d-6af9-4fb8-8f56-df1753344aa3}, !- Handle
  Run Period 1,                           !- Name
  1,                                      !- Begin Month
  1,                                      !- Begin Day of Month
  12,                                     !- End Month
  31,                                     !- End Day of Month
  ,                                       !- Use Weather File Holidays and Special Days
  ,                                       !- Use Weather File Daylight Saving Period
  ,                                       !- Apply Weekend Holiday Rule
  ,                                       !- Use Weather File Rain Indicators
  ,                                       !- Use Weather File Snow Indicators
  ;                                       !- Number of Times Runperiod to be Repeated

OS:Building,
  {bf305633-c5a1-4881-9edf-ca5e1a8e1274}, !- Handle
  Building 1,                             !- Name
  ,                                       !- Building Sector Type
  ,                                       !- North Axis {deg}
  ,                                       !- Nominal Floor to Floor Height {m}
  ,                                       !- Space Type Name
  ,                                       !- Default Construction Set Name
  {a448493d-83cc-4c16-afd4-2316b179b318}, !- Default Schedule Set Name
  ,                                       !- Standards Number of Stories
  ,                                       !- Standards Number of Above Ground Stories
  SmallHotel;                             !- Standards Building Type

OS:LifeCycleCost:Parameters,
  {231cf8a0-f0e7-4251-a99f-11f0d464e661}, !- Handle
  FEMP,                                   !- Analysis Type
  ,                                       !- Discounting Convention
  ,                                       !- Inflation Approach
  ,                                       !- Real Discount Rate
  ,                                       !- Nominal Discount Rate
  ,                                       !- Inflation
  ,                                       !- Base Date Month
  ,                                       !- Base Date Year
  ,                                       !- Service Date Month
  ,                                       !- Service Date Year
  ,                                       !- Length of Study Period in Years
  ,                                       !- Tax Rate
  ,                                       !- Depreciation Method
  Yes;                                    !- Use NIST Fuel Escalation Rates

OS:Facility,
  {3ba8e45b-b833-44eb-a723-ea6c3946dc96}; !- Handle

OS:SpaceType,
  {882adf92-65c2-4f1b-8316-e028e01068ee}, !- Handle
  SmallHotel|BlendGuest|DOE Ref 1980-2004|ASHRAE 169-2006-5A, !- Name
  {5fb0adad-b3a0-4ff4-9356-7a0b48efc30c}, !- Default Construction Set Name
  ,                                       !- Default Schedule Set Name
  {6b79c08f-d813-47fe-8d88-6e5d64aa43a4}, !- Group Rendering Name
  {0ac6a0e7-6933-405d-874e-6b4de16df02a}, !- Design Specification Outdoor Air Object Name
  SmallHotel,                             !- Standards Building Type
  BlendGuest;                             !- Standards Space Type

OS:Rendering:Color,
  {6b79c08f-d813-47fe-8d88-6e5d64aa43a4}, !- Handle
  Rendering Color 1,                      !- Name
  78,                                     !- Rendering Red Value
  167,                                    !- Rendering Green Value
  222;                                    !- Rendering Blue Value

OS:SpaceType,
  {6b8138f0-0ed0-42d7-8872-8396eeb4f0c8}, !- Handle
  SmallHotel|BlendMtg|DOE Ref 1980-2004|ASHRAE 169-2006-5A, !- Name
  {5fb0adad-b3a0-4ff4-9356-7a0b48efc30c}, !- Default Construction Set Name
  ,                                       !- Default Schedule Set Name
  {e73cb37d-9a9d-4f6e-8eb5-6bfe38e6f63c}, !- Group Rendering Name
  {837af986-ae34-46fd-bb7e-39aa2e35aa8a}, !- Design Specification Outdoor Air Object Name
  SmallHotel,                             !- Standards Building Type
  BlendMtg;                               !- Standards Space Type

OS:Rendering:Color,
  {e73cb37d-9a9d-4f6e-8eb5-6bfe38e6f63c}, !- Handle
  Rendering Color 2,                      !- Name
  120,                                    !- Rendering Red Value
  230,                                    !- Rendering Green Value
  199;                                    !- Rendering Blue Value

OS:SpaceType,
  {f1f565d3-e3ee-45b1-888f-878f92e605a4}, !- Handle
  SmallHotel|BlendMisc|DOE Ref 1980-2004|ASHRAE 169-2006-5A, !- Name
  {5fb0adad-b3a0-4ff4-9356-7a0b48efc30c}, !- Default Construction Set Name
  ,                                       !- Default Schedule Set Name
  {feb7025d-87cf-465a-801f-87e08a19f0d4}, !- Group Rendering Name
  {86953f6c-a6c8-4c27-9217-0a2584a2dd61}, !- Design Specification Outdoor Air Object Name
  SmallHotel,                             !- Standards Building Type
  BlendMisc;                              !- Standards Space Type

OS:Rendering:Color,
  {feb7025d-87cf-465a-801f-87e08a19f0d4}, !- Handle
  Rendering Color 3,                      !- Name
  230,                                    !- Rendering Red Value
  157,                                    !- Rendering Green Value
  120;                                    !- Rendering Blue Value

OS:SpaceType,
  {4166779e-1c92-40c4-99ba-3cf1d4ecf4a4}, !- Handle
  SmallHotel|Laundry|DOE Ref 1980-2004|ASHRAE 169-2006-5A, !- Name
  {5fb0adad-b3a0-4ff4-9356-7a0b48efc30c}, !- Default Construction Set Name
  {f9ac7a22-cceb-4b80-af5d-2740b48b5dfc}, !- Default Schedule Set Name
  {6d30f1f4-cdcc-4008-bd53-ad81a4b565d0}, !- Group Rendering Name
  {2c8dcc69-629b-4ce1-b8bf-c28bb75a1780}, !- Design Specification Outdoor Air Object Name
  SmallHotel,                             !- Standards Building Type
  Laundry;                                !- Standards Space Type

OS:Rendering:Color,
  {6d30f1f4-cdcc-4008-bd53-ad81a4b565d0}, !- Handle
  Rendering Color 4,                      !- Name
  120,                                    !- Rendering Red Value
  149,                                    !- Rendering Green Value
  230;                                    !- Rendering Blue Value

OS:SpaceType,
  {acfa1ae3-00d8-4c66-a085-edb4b91a2d28}, !- Handle
  SmallHotel|Exercise|DOE Ref 1980-2004|ASHRAE 169-2006-5A, !- Name
  {5fb0adad-b3a0-4ff4-9356-7a0b48efc30c}, !- Default Construction Set Name
  {f0ace6f7-0b0d-41e7-9466-9f69f2c35722}, !- Default Schedule Set Name
  {b34dbbf8-a8f6-4f46-931b-24eab1efe529}, !- Group Rendering Name
  {c330dce2-834e-430a-b296-21cd656dcf97}, !- Design Specification Outdoor Air Object Name
  SmallHotel,                             !- Standards Building Type
  Exercise;                               !- Standards Space Type

OS:Rendering:Color,
  {b34dbbf8-a8f6-4f46-931b-24eab1efe529}, !- Handle
  Rendering Color 5,                      !- Name
  154,                                    !- Rendering Red Value
  230,                                    !- Rendering Green Value
  120;                                    !- Rendering Blue Value

OS:Schedule:Ruleset,
  {7b979260-bf03-443a-aa42-9d62cc3b1231}, !- Handle
  0600|2200|SmallHotel|default|hoo,       !- Name
  {c82796d6-4a3e-426b-91a5-ddc5aceae31a}, !- Schedule Type Limits Name
  {577db772-cdb0-47ed-b741-e8d2b90079b0}, !- Default Day Schedule Name
  {a9ca86ad-d830-440b-a179-429c307d6cc7}, !- Summer Design Day Schedule Name
  {5a59e84b-d173-4d24-97b6-7c367cb60666}; !- Winter Design Day Schedule Name

OS:Schedule:Day,
  {577db772-cdb0-47ed-b741-e8d2b90079b0}, !- Handle
  0600|2200|SmallHotel|default|hoo Schedule Week Day, !- Name
  {c82796d6-4a3e-426b-91a5-ddc5aceae31a}, !- Schedule Type Limits Name
  ,                                       !- Interpolate to Timestep
  6,                                      !- Hour 1
  0,                                      !- Minute 1
  0,                                      !- Value Until Time 1
  22,                                     !- Hour 2
  0,                                      !- Minute 2
  1,                                      !- Value Until Time 2
  24,                                     !- Hour 3
  0,                                      !- Minute 3
  0;                                      !- Value Until Time 3

OS:Schedule:Day,
  {e5fbb336-52b9-4c32-aa10-2e7f8b7dbec7}, !- Handle
  Schedule Day 2,                         !- Name
  ,                                       !- Schedule Type Limits Name
  ,                                       !- Interpolate to Timestep
  24,                                     !- Hour 1
  0,                                      !- Minute 1
  0;                                      !- Value Until Time 1

OS:Schedule:Day,
  {5a59e84b-d173-4d24-97b6-7c367cb60666}, !- Handle
  0600|2200|SmallHotel|default|hoo Winter Design Day, !- Name
  {c82796d6-4a3e-426b-91a5-ddc5aceae31a}, !- Schedule Type Limits Name
  ,                                       !- Interpolate to Timestep
  24,                                     !- Hour 1
  0,                                      !- Minute 1
  0;                                      !- Value Until Time 1

OS:Schedule:Day,
  {753f707c-386e-4d5e-86b4-4c26072022e0}, !- Handle
  Schedule Day 3,                         !- Name
  ,                                       !- Schedule Type Limits Name
  ,                                       !- Interpolate to Timestep
  24,                                     !- Hour 1
  0,                                      !- Minute 1
  0;                                      !- Value Until Time 1

OS:Schedule:Day,
  {a9ca86ad-d830-440b-a179-429c307d6cc7}, !- Handle
  0600|2200|SmallHotel|default|hoo Summer Design Day, !- Name
  {c82796d6-4a3e-426b-91a5-ddc5aceae31a}, !- Schedule Type Limits Name
  ,                                       !- Interpolate to Timestep
  24,                                     !- Hour 1
  0,                                      !- Minute 1
  1;                                      !- Value Until Time 1

OS:DefaultScheduleSet,
  {a448493d-83cc-4c16-afd4-2316b179b318}, !- Handle
  Building Hours of Operation,            !- Name
  {7b979260-bf03-443a-aa42-9d62cc3b1231}, !- Hours of Operation Schedule Name
  ,                                       !- Number of People Schedule Name
  ,                                       !- People Activity Level Schedule Name
  ,                                       !- Lighting Schedule Name
  ,                                       !- Electric Equipment Schedule Name
  ,                                       !- Gas Equipment Schedule Name
  ,                                       !- Hot Water Equipment Schedule Name
  ,                                       !- Infiltration Schedule Name
  ,                                       !- Steam Equipment Schedule Name
  ;                                       !- Other Equipment Schedule Name

OS:ScheduleTypeLimits,
  {c82796d6-4a3e-426b-91a5-ddc5aceae31a}, !- Handle
  OnOff,                                  !- Name
  0,                                      !- Lower Limit Value {BasedOnField A4}
  1,                                      !- Upper Limit Value {BasedOnField A4}
  Discrete,                               !- Numeric Type
  Availability;                           !- Unit Type

OS:Schedule:Ruleset,
  {e8a21362-3c33-497f-b891-e97cd84af99c}, !- Handle
  0600|2200|SmallHotel|default|rh,        !- Name
  {871f2227-52c9-48d0-86dd-512841580a50}, !- Schedule Type Limits Name
  {f72cd40f-de42-4eda-afe0-f3a47ee97425}, !- Default Day Schedule Name
  {31af1c8b-6f20-44e6-940f-0fa3c391e7c1}, !- Summer Design Day Schedule Name
  {5dd3e773-24d1-4aae-9c6e-b1a14155cfc0}; !- Winter Design Day Schedule Name

OS:ScheduleTypeLimits,
  {871f2227-52c9-48d0-86dd-512841580a50}, !- Handle
  Dimensionless Schedule Type Limits,     !- Name
  ,                                       !- Lower Limit Value {BasedOnField A4}
  ,                                       !- Upper Limit Value {BasedOnField A4}
  Continuous,                             !- Numeric Type
  Dimensionless;                          !- Unit Type

OS:Schedule:Day,
  {f72cd40f-de42-4eda-afe0-f3a47ee97425}, !- Handle
  0600|2200|SmallHotel|default|rh |default, !- Name
  {871f2227-52c9-48d0-86dd-512841580a50}, !- Schedule Type Limits Name
  ,                                       !- Interpolate to Timestep
  24,                                     !- Hour 1
  0,                                      !- Minute 1
  50;                                     !- Value Until Time 1

OS:Schedule:Day,
  {31af1c8b-6f20-44e6-940f-0fa3c391e7c1}, !- Handle
  0600|2200|SmallHotel|default|rh Summer Design Day, !- Name
  {871f2227-52c9-48d0-86dd-512841580a50}, !- Schedule Type Limits Name
  ,                                       !- Interpolate to Timestep
  24,                                     !- Hour 1
  0,                                      !- Minute 1
  50;                                     !- Value Until Time 1

OS:Schedule:Day,
  {5dd3e773-24d1-4aae-9c6e-b1a14155cfc0}, !- Handle
  0600|2200|SmallHotel|default|rh Winter Design Day, !- Name
  {871f2227-52c9-48d0-86dd-512841580a50}, !- Schedule Type Limits Name
  ,                                       !- Interpolate to Timestep
  24,                                     !- Hour 1
  0,                                      !- Minute 1
  50;                                     !- Value Until Time 1

OS:Schedule:Ruleset,
  {4be580e9-b4e9-4edb-b63a-c6e3ee9dc201}, !- Handle
  0600|2200|SmallHotel|default|elevator,  !- Name
  {4673ddd0-a57c-49ee-b209-9d409c1cbd70}, !- Schedule Type Limits Name
  {b46b499c-3b4d-4323-a8b8-c02d182a7f99}, !- Default Day Schedule Name
  {9bd5ffcc-8822-4c10-880c-f653d41742a3}, !- Summer Design Day Schedule Name
  {4be2d1e6-2514-4412-85c5-6e07a77e66c3}; !- Winter Design Day Schedule Name

OS:ScheduleTypeLimits,
  {4673ddd0-a57c-49ee-b209-9d409c1cbd70}, !- Handle
  Elevators Schedule Type Limits,         !- Name
  0,                                      !- Lower Limit Value {BasedOnField A4}
  1,                                      !- Upper Limit Value {BasedOnField A4}
  Continuous,                             !- Numeric Type
  Dimensionless;                          !- Unit Type

OS:Schedule:Day,
  {b46b499c-3b4d-4323-a8b8-c02d182a7f99}, !- Handle
  0600|2200|SmallHotel|default|elevator |default, !- Name
  {4673ddd0-a57c-49ee-b209-9d409c1cbd70}, !- Schedule Type Limits Name
  ,                                       !- Interpolate to Timestep
  4,                                      !- Hour 1
  0,                                      !- Minute 1
  0.05,                                   !- Value Until Time 1
  5,                                      !- Hour 2
  0,                                      !- Minute 2
  0.1,                                    !- Value Until Time 2
  6,                                      !- Hour 3
  0,                                      !- Minute 3
  0.2,                                    !- Value Until Time 3
  7,                                      !- Hour 4
  0,                                      !- Minute 4
  0.4,                                    !- Value Until Time 4
  9,                                      !- Hour 5
  0,                                      !- Minute 5
  0.5,                                    !- Value Until Time 5
  10,                                     !- Hour 6
  0,                                      !- Minute 6
  0.35,                                   !- Value Until Time 6
  16,                                     !- Hour 7
  0,                                      !- Minute 7
  0.15,                                   !- Value Until Time 7
  17,                                     !- Hour 8
  0,                                      !- Minute 8
  0.35,                                   !- Value Until Time 8
  19,                                     !- Hour 9
  0,                                      !- Minute 9
  0.5,                                    !- Value Until Time 9
  21,                                     !- Hour 10
  0,                                      !- Minute 10
  0.4,                                    !- Value Until Time 10
  22,                                     !- Hour 11
  0,                                      !- Minute 11
  0.3,                                    !- Value Until Time 11
  23,                                     !- Hour 12
  0,                                      !- Minute 12
  0.2,                                    !- Value Until Time 12
  24,                                     !- Hour 13
  0,                                      !- Minute 13
  0.1;                                    !- Value Until Time 13

OS:Schedule:Day,
  {9bd5ffcc-8822-4c10-880c-f653d41742a3}, !- Handle
  0600|2200|SmallHotel|default|elevator Summer Design Day, !- Name
  {4673ddd0-a57c-49ee-b209-9d409c1cbd70}, !- Schedule Type Limits Name
  ,                                       !- Interpolate to Timestep
  4,                                      !- Hour 1
  0,                                      !- Minute 1
  0.05,                                   !- Value Until Time 1
  5,                                      !- Hour 2
  0,                                      !- Minute 2
  0.1,                                    !- Value Until Time 2
  6,                                      !- Hour 3
  0,                                      !- Minute 3
  0.2,                                    !- Value Until Time 3
  7,                                      !- Hour 4
  0,                                      !- Minute 4
  0.4,                                    !- Value Until Time 4
  9,                                      !- Hour 5
  0,                                      !- Minute 5
  0.5,                                    !- Value Until Time 5
  10,                                     !- Hour 6
  0,                                      !- Minute 6
  0.35,                                   !- Value Until Time 6
  16,                                     !- Hour 7
  0,                                      !- Minute 7
  0.15,                                   !- Value Until Time 7
  17,                                     !- Hour 8
  0,                                      !- Minute 8
  0.35,                                   !- Value Until Time 8
  19,                                     !- Hour 9
  0,                                      !- Minute 9
  0.5,                                    !- Value Until Time 9
  21,                                     !- Hour 10
  0,                                      !- Minute 10
  0.4,                                    !- Value Until Time 10
  22,                                     !- Hour 11
  0,                                      !- Minute 11
  0.3,                                    !- Value Until Time 11
  23,                                     !- Hour 12
  0,                                      !- Minute 12
  0.2,                                    !- Value Until Time 12
  24,                                     !- Hour 13
  0,                                      !- Minute 13
  0.1;                                    !- Value Until Time 13

OS:Schedule:Day,
  {4be2d1e6-2514-4412-85c5-6e07a77e66c3}, !- Handle
  0600|2200|SmallHotel|default|elevator Winter Design Day, !- Name
  {4673ddd0-a57c-49ee-b209-9d409c1cbd70}, !- Schedule Type Limits Name
  ,                                       !- Interpolate to Timestep
  4,                                      !- Hour 1
  0,                                      !- Minute 1
  0.05,                                   !- Value Until Time 1
  5,                                      !- Hour 2
  0,                                      !- Minute 2
  0.1,                                    !- Value Until Time 2
  6,                                      !- Hour 3
  0,                                      !- Minute 3
  0.2,                                    !- Value Until Time 3
  7,                                      !- Hour 4
  0,                                      !- Minute 4
  0.4,                                    !- Value Until Time 4
  9,                                      !- Hour 5
  0,                                      !- Minute 5
  0.5,                                    !- Value Until Time 5
  10,                                     !- Hour 6
  0,                                      !- Minute 6
  0.35,                                   !- Value Until Time 6
  16,                                     !- Hour 7
  0,                                      !- Minute 7
  0.15,                                   !- Value Until Time 7
  17,                                     !- Hour 8
  0,                                      !- Minute 8
  0.35,                                   !- Value Until Time 8
  19,                                     !- Hour 9
  0,                                      !- Minute 9
  0.5,                                    !- Value Until Time 9
  21,                                     !- Hour 10
  0,                                      !- Minute 10
  0.4,                                    !- Value Until Time 10
  22,                                     !- Hour 11
  0,                                      !- Minute 11
  0.3,                                    !- Value Until Time 11
  23,                                     !- Hour 12
  0,                                      !- Minute 12
  0.2,                                    !- Value Until Time 12
  24,                                     !- Hour 13
  0,                                      !- Minute 13
  0.1;                                    !- Value Until Time 13

OS:Schedule:Ruleset,
  {6970cd0e-e047-4dc1-970a-5d42833208bb}, !- Handle
  0600|2200|SmallHotel|Office|lighting,   !- Name
  {712c5037-62c1-4a62-bba9-89a69bbe9b45}, !- Schedule Type Limits Name
  {e85ca2d6-07f0-4cd1-a89c-9d37a7fdbd73}, !- Default Day Schedule Name
  {6131e874-0faf-4141-b2a2-6bd5ab611053}, !- Summer Design Day Schedule Name
  {56377241-4d62-41f8-9e1e-2559f23c8e83}; !- Winter Design Day Schedule Name

OS:ScheduleTypeLimits,
  {712c5037-62c1-4a62-bba9-89a69bbe9b45}, !- Handle
  Lights Schedule Type Limits,            !- Name
  0,                                      !- Lower Limit Value {BasedOnField A4}
  1,                                      !- Upper Limit Value {BasedOnField A4}
  Continuous,                             !- Numeric Type
  Dimensionless;                          !- Unit Type

OS:Schedule:Day,
  {e85ca2d6-07f0-4cd1-a89c-9d37a7fdbd73}, !- Handle
  0600|2200|SmallHotel|Office|lighting |default, !- Name
  {712c5037-62c1-4a62-bba9-89a69bbe9b45}, !- Schedule Type Limits Name
  ,                                       !- Interpolate to Timestep
  7,                                      !- Hour 1
  0,                                      !- Minute 1
  0.5,                                    !- Value Until Time 1
  8,                                      !- Hour 2
  0,                                      !- Minute 2
  0.61,                                   !- Value Until Time 2
  12,                                     !- Hour 3
  0,                                      !- Minute 3
  0.9,                                    !- Value Until Time 3
  13,                                     !- Hour 4
  0,                                      !- Minute 4
  0.8,                                    !- Value Until Time 4
  17,                                     !- Hour 5
  0,                                      !- Minute 5
  0.9,                                    !- Value Until Time 5
  18,                                     !- Hour 6
  0,                                      !- Minute 6
  0.61,                                   !- Value Until Time 6
  24,                                     !- Hour 7
  0,                                      !- Minute 7
  0.5;                                    !- Value Until Time 7

OS:Schedule:Day,
  {6131e874-0faf-4141-b2a2-6bd5ab611053}, !- Handle
  0600|2200|SmallHotel|Office|lighting Summer Design Day, !- Name
  {712c5037-62c1-4a62-bba9-89a69bbe9b45}, !- Schedule Type Limits Name
  ,                                       !- Interpolate to Timestep
  24,                                     !- Hour 1
  0,                                      !- Minute 1
  1;                                      !- Value Until Time 1

OS:Schedule:Day,
  {56377241-4d62-41f8-9e1e-2559f23c8e83}, !- Handle
  0600|2200|SmallHotel|Office|lighting Winter Design Day, !- Name
  {712c5037-62c1-4a62-bba9-89a69bbe9b45}, !- Schedule Type Limits Name
  ,                                       !- Interpolate to Timestep
  24,                                     !- Hour 1
  0,                                      !- Minute 1
  0.5;                                    !- Value Until Time 1

OS:Schedule:Ruleset,
  {f0d7b247-0008-4038-853c-210571b443b9}, !- Handle
  0600|2200|SmallHotel|default|air_velocity, !- Name
  {871f2227-52c9-48d0-86dd-512841580a50}, !- Schedule Type Limits Name
  {c4ea7117-6c34-48ba-852f-13685829c8e5}, !- Default Day Schedule Name
  {b8fa73a8-2a64-4a07-86ae-f64195bfdf61}, !- Summer Design Day Schedule Name