
OS:Version,
  {50dc39ea-b9d7-4869-a2fa-34045ded1e94}, !- Handle
  1.5.5;                                  !- Version Identifier

OS:ClimateZones,
  {135edfab-17e7-40db-a436-27d385a8cd6d}, !- Handle
  ,                                       !- Active Institution
  ,                                       !- Active Year
  ASHRAE,                                 !- Climate Zone Institution Name 1
  ANSI/ASHRAE Standard 169,               !- Climate Zone Document Name 1
  2006,                                   !- Climate Zone Document Year 1
  ,                                       !- Climate Zone Value 1
  CEC,                                    !- Climate Zone Institution Name 2
  California Climate Zone Descriptions,   !- Climate Zone Document Name 2
  1995,                                   !- Climate Zone Document Year 2
  ;                                       !- Climate Zone Value 2

OS:YearDescription,
  {513d8dda-86cb-442a-b01c-1f7f0e0ac70e}; !- Handle

OS:RadianceParameters,
  {270a96f1-3c86-4b75-a667-cdf22790e2c8}, !- Handle
  1,                                      !- Accumulated Rays per Record
  0,                                      !- Direct Threshold
  1,                                      !- Direct Certainty
  1,                                      !- Direct Jitter
  1,                                      !- Direct Pretest
  6,                                      !- Ambient Bounces VMX
  2,                                      !- Ambient Bounces DMX
  4050,                                   !- Ambient Divisions VMX
  512,                                    !- Ambient Divisions DMX
  256,                                    !- Ambient Supersamples
  0.001,                                  !- Limit Weight VMX
  0.001,                                  !- Limit Weight DMX
  500,                                    !- Klems Sampling Density
  146;                                    !- Sky Discretization Resolution

OS:SimulationControl,
  {2c487a4c-bac9-4ac5-b669-1e49d9da7c2b}, !- Handle
  ,                                       !- Do Zone Sizing Calculation
  ,                                       !- Do System Sizing Calculation
  ,                                       !- Do Plant Sizing Calculation
  No,                                     !- Run Simulation for Sizing Periods
  ,                                       !- Run Simulation for Weather File Run Periods
  0.04,                                   !- Loads Convergence Tolerance Value
  ,                                       !- Temperature Convergence Tolerance Value {deltaC}
  ,                                       !- Solar Distribution
  ,                                       !- Maximum Number of Warmup Days
  2;                                      !- Minimum Number of Warmup Days

OS:Sizing:Parameters,
  {dde5af6f-7923-4600-a28a-7556673a0266}, !- Handle
  1.25,                                   !- Heating Sizing Factor
  1.15;                                   !- Cooling Sizing Factor

OS:ProgramControl,
  {05027a99-f2b3-4aeb-afc6-1425fbb4371d}; !- Handle

OS:Timestep,
  {4ebc9f1e-4707-402e-9844-67eb1ffbd522}, !- Handle
  2;                                      !- Number of Timesteps per Hour

OS:OutputControl:ReportingTolerances,
  {65797aa2-06a9-45fe-b69d-bc6e060399d3}; !- Handle

OS:ConvergenceLimits,
  {9fc11aba-8822-4f3d-970c-46391ba4040d}; !- Handle

OS:ShadowCalculation,
  {ca758bea-4416-4626-9bba-3d8795c79bd6}, !- Handle
  7,                                      !- Calculation Frequency
  15000;                                  !- Maximum Figures in Shadow Overlap Calculations

OS:SurfaceConvectionAlgorithm:Inside,
  {aaabfc36-718a-4ab0-b622-f186ebb45230}, !- Handle
  TARP;                                   !- Algorithm

OS:SurfaceConvectionAlgorithm:Outside,
  {9a0a9f6f-4bbd-4b12-a121-9492a1fcd7d6}, !- Handle
  DOE-2;                                  !- Algorithm

OS:HeatBalanceAlgorithm,
  {9d93e563-e1e0-46d7-9e39-d1c8aceb7212}, !- Handle
  ConductionTransferFunction,             !- Algorithm
  200;                                    !- Surface Temperature Upper Limit {F}

OS:ZoneAirHeatBalanceAlgorithm,
  {8520d93e-310f-4696-9bcd-36228bfdd743}, !- Handle
  AnalyticalSolution;                     !- Algorithm

OS:ZoneAirContaminantBalance,
  {eb5fc3ae-fb22-4160-8fcb-3e3b22b000d3}; !- Handle

OS:ZoneCapacitanceMultiplier:ResearchSpecial,
  {4020ce4f-5a7a-4849-8028-8305d7b751b1}, !- Handle
  ,                                       !- Temperature Capacity Multiplier
  ,                                       !- Humidity Capacity Multiplier
  ;                                       !- Carbon Dioxide Capacity Multiplier

OS:RunPeriod,
  {28df894d-6af9-4fb8-8f56-df1753344aa3}, !- Handle
  Run Period 1,                           !- Name
  1,                                      !- Begin Month
  1,                                      !- Begin Day of Month
  12,                                     !- End Month
  31,                                     !- End Day of Month
  ,                                       !- Use Weather File Holidays and Special Days
  ,                                       !- Use Weather File Daylight Saving Period
  ,                                       !- Apply Weekend Holiday Rule
  ,                                       !- Use Weather File Rain Indicators
  ,                                       !- Use Weather File Snow Indicators
  ;                                       !- Number of Times Runperiod to be Repeated

OS:Building,
  {bf305633-c5a1-4881-9edf-ca5e1a8e1274}, !- Handle
  Building 1,                             !- Name
  ,                                       !- Building Sector Type
  ,                                       !- North Axis {deg}
  ,                                       !- Nominal Floor to Floor Height {m}
  ,                                       !- Space Type Name
  ,                                       !- Default Construction Set Name
  {83a16a0b-62c3-4177-9f20-4a97a178ff9e}, !- Default Schedule Set Name
  ,                                       !- Standards Number of Stories
  ,                                       !- Standards Number of Above Ground Stories
  SmallHotel;                             !- Standards Building Type

OS:LifeCycleCost:Parameters,
  {231cf8a0-f0e7-4251-a99f-11f0d464e661}, !- Handle
  FEMP,                                   !- Analysis Type
  ,                                       !- Discounting Convention
  ,                                       !- Inflation Approach
  ,                                       !- Real Discount Rate
  ,                                       !- Nominal Discount Rate
  ,                                       !- Inflation
  ,                                       !- Base Date Month
  ,                                       !- Base Date Year
  ,                                       !- Service Date Month
  ,                                       !- Service Date Year
  ,                                       !- Length of Study Period in Years
  ,                                       !- Tax Rate
  ,                                       !- Depreciation Method
  Yes;                                    !- Use NIST Fuel Escalation Rates

OS:Facility,
  {3ba8e45b-b833-44eb-a723-ea6c3946dc96}; !- Handle

OS:SpaceType,
  {d4b02264-49c5-446c-9394-c1f846fbd9a5}, !- Handle
  SmallHotel|BlendGuest|DOE Ref Pre-1980|ASHRAE 169-2006-5A, !- Name
  {2a53be3a-56d7-4453-b57d-61137fca7a52}, !- Default Construction Set Name
  ,                                       !- Default Schedule Set Name
  {c2a2b6c5-ab6a-49ec-bc02-94f2b1e490e0}, !- Group Rendering Name
  {cc009de0-406d-4de9-86c6-645fe44e4d41}, !- Design Specification Outdoor Air Object Name
  SmallHotel,                             !- Standards Building Type
  BlendGuest;                             !- Standards Space Type

OS:Rendering:Color,
  {c2a2b6c5-ab6a-49ec-bc02-94f2b1e490e0}, !- Handle
  Rendering Color 1,                      !- Name
  78,                                     !- Rendering Red Value
  167,                                    !- Rendering Green Value
  222;                                    !- Rendering Blue Value

OS:SpaceType,
  {632db3a9-5f72-4c4e-832f-4fd7e9faaaca}, !- Handle
  SmallHotel|BlendMtg|DOE Ref Pre-1980|ASHRAE 169-2006-5A, !- Name
  {2a53be3a-56d7-4453-b57d-61137fca7a52}, !- Default Construction Set Name
  ,                                       !- Default Schedule Set Name
  {83eb5f6a-831b-4d1f-9746-6765d4488cdd}, !- Group Rendering Name
  {bf5b13d6-b51f-46ba-a84a-2291ff07bf9f}, !- Design Specification Outdoor Air Object Name
  SmallHotel,                             !- Standards Building Type
  BlendMtg;                               !- Standards Space Type

OS:Rendering:Color,
  {83eb5f6a-831b-4d1f-9746-6765d4488cdd}, !- Handle
  Rendering Color 2,                      !- Name
  120,                                    !- Rendering Red Value
  230,                                    !- Rendering Green Value
  199;                                    !- Rendering Blue Value

OS:SpaceType,
  {4c0ce35d-cc2f-4385-927e-187eef2d0c80}, !- Handle
  SmallHotel|BlendMisc|DOE Ref Pre-1980|ASHRAE 169-2006-5A, !- Name
  {2a53be3a-56d7-4453-b57d-61137fca7a52}, !- Default Construction Set Name
  ,                                       !- Default Schedule Set Name
  {fbda1c5b-4515-4932-bc86-72d3826df1c5}, !- Group Rendering Name
  {2c4c77d1-ee78-40d8-9bda-56202f78325e}, !- Design Specification Outdoor Air Object Name
  SmallHotel,                             !- Standards Building Type
  BlendMisc;                              !- Standards Space Type

OS:Rendering:Color,
  {fbda1c5b-4515-4932-bc86-72d3826df1c5}, !- Handle
  Rendering Color 3,                      !- Name
  230,                                    !- Rendering Red Value
  157,                                    !- Rendering Green Value
  120;                                    !- Rendering Blue Value

OS:SpaceType,
  {287e7ec1-d408-4171-958c-1c004d8802a2}, !- Handle
  SmallHotel|Laundry|DOE Ref Pre-1980|ASHRAE 169-2006-5A, !- Name
  {2a53be3a-56d7-4453-b57d-61137fca7a52}, !- Default Construction Set Name
  {f2272580-09ed-4dd2-81c5-415b373c4219}, !- Default Schedule Set Name
  {9ae7d253-f104-40fd-b190-e2d28f186420}, !- Group Rendering Name
  {83de09d8-f7aa-47c3-a095-343e9bfa86c2}, !- Design Specification Outdoor Air Object Name
  SmallHotel,                             !- Standards Building Type
  Laundry;                                !- Standards Space Type

OS:Rendering:Color,
  {9ae7d253-f104-40fd-b190-e2d28f186420}, !- Handle
  Rendering Color 4,                      !- Name
  120,                                    !- Rendering Red Value
  149,                                    !- Rendering Green Value
  230;                                    !- Rendering Blue Value

OS:SpaceType,
  {21c3c5fc-0695-4f5c-98cd-a73116c18f3c}, !- Handle
  SmallHotel|Exercise|DOE Ref Pre-1980|ASHRAE 169-2006-5A, !- Name
  {2a53be3a-56d7-4453-b57d-61137fca7a52}, !- Default Construction Set Name
  {f99d8eeb-9fc3-48ad-8cbd-ef3a533b13f1}, !- Default Schedule Set Name
  {1df61080-a6d7-436a-90b2-710f4aaff090}, !- Group Rendering Name
  {ddd32df1-0a25-49ab-9c91-62b57b56233a}, !- Design Specification Outdoor Air Object Name
  SmallHotel,                             !- Standards Building Type
  Exercise;                               !- Standards Space Type

OS:Rendering:Color,
  {1df61080-a6d7-436a-90b2-710f4aaff090}, !- Handle
  Rendering Color 5,                      !- Name
  154,                                    !- Rendering Red Value
  230,                                    !- Rendering Green Value
  120;                                    !- Rendering Blue Value

OS:Schedule:Ruleset,
  {185bac82-041b-4008-8087-759a500d2ca6}, !- Handle
  0600|2200|SmallHotel|default|hoo,       !- Name
  {59993e7c-71c0-48bb-bc23-c475198f4332}, !- Schedule Type Limits Name
  {55504e26-6a8a-49f5-aef1-a186f61a790a}, !- Default Day Schedule Name
  {650d43ae-fa49-461e-a2f8-35361b32f750}, !- Summer Design Day Schedule Name
  {78c4db75-8313-470c-9584-ea12dd3fbd82}; !- Winter Design Day Schedule Name

OS:Schedule:Day,
  {55504e26-6a8a-49f5-aef1-a186f61a790a}, !- Handle
  0600|2200|SmallHotel|default|hoo Schedule Week Day, !- Name
  {59993e7c-71c0-48bb-bc23-c475198f4332}, !- Schedule Type Limits Name
  ,                                       !- Interpolate to Timestep
  6,                                      !- Hour 1
  0,                                      !- Minute 1
  0,                                      !- Value Until Time 1
  22,                                     !- Hour 2
  0,                                      !- Minute 2
  1,                                      !- Value Until Time 2
  24,                                     !- Hour 3
  0,                                      !- Minute 3
  0;                                      !- Value Until Time 3

OS:Schedule:Day,
  {e02d00c2-b6bb-4dc1-af83-ab554ac3e9bf}, !- Handle
  Schedule Day 2,                         !- Name
  ,                                       !- Schedule Type Limits Name
  ,                                       !- Interpolate to Timestep
  24,                                     !- Hour 1
  0,                                      !- Minute 1
  0;                                      !- Value Until Time 1

OS:Schedule:Day,
  {78c4db75-8313-470c-9584-ea12dd3fbd82}, !- Handle
  0600|2200|SmallHotel|default|hoo Winter Design Day, !- Name
  {59993e7c-71c0-48bb-bc23-c475198f4332}, !- Schedule Type Limits Name
  ,                                       !- Interpolate to Timestep
  24,                                     !- Hour 1
  0,                                      !- Minute 1
  0;                                      !- Value Until Time 1

OS:Schedule:Day,
  {9117a90b-9199-40e9-9acd-be315cfe3a2e}, !- Handle
  Schedule Day 3,                         !- Name
  ,                                       !- Schedule Type Limits Name
  ,                                       !- Interpolate to Timestep
  24,                                     !- Hour 1
  0,                                      !- Minute 1
  0;                                      !- Value Until Time 1

OS:Schedule:Day,
  {650d43ae-fa49-461e-a2f8-35361b32f750}, !- Handle
  0600|2200|SmallHotel|default|hoo Summer Design Day, !- Name
  {59993e7c-71c0-48bb-bc23-c475198f4332}, !- Schedule Type Limits Name
  ,                                       !- Interpolate to Timestep
  24,                                     !- Hour 1
  0,                                      !- Minute 1
  1;                                      !- Value Until Time 1

OS:DefaultScheduleSet,
  {83a16a0b-62c3-4177-9f20-4a97a178ff9e}, !- Handle
  Building Hours of Operation,            !- Name
  {185bac82-041b-4008-8087-759a500d2ca6}, !- Hours of Operation Schedule Name
  ,                                       !- Number of People Schedule Name
  ,                                       !- People Activity Level Schedule Name
  ,                                       !- Lighting Schedule Name
  ,                                       !- Electric Equipment Schedule Name
  ,                                       !- Gas Equipment Schedule Name
  ,                                       !- Hot Water Equipment Schedule Name
  ,                                       !- Infiltration Schedule Name
  ,                                       !- Steam Equipment Schedule Name
  ;                                       !- Other Equipment Schedule Name

OS:ScheduleTypeLimits,
  {59993e7c-71c0-48bb-bc23-c475198f4332}, !- Handle
  OnOff,                                  !- Name
  0,                                      !- Lower Limit Value {BasedOnField A4}
  1,                                      !- Upper Limit Value {BasedOnField A4}
  Discrete,                               !- Numeric Type
  Availability;                           !- Unit Type

OS:Schedule:Ruleset,
  {f8684db5-0077-42b0-ae5e-aa9d7fc29704}, !- Handle
  0600|2200|SmallHotel|Storage|lighting,  !- Name
  {28be4f1b-8a22-41f5-925a-0c4496d823da}, !- Schedule Type Limits Name
  {fed16097-db7b-49e1-a75c-e67e9ba808c8}, !- Default Day Schedule Name
  {a1d60afd-89f3-4085-913b-893b4ddd28e0}, !- Summer Design Day Schedule Name
  {c597318a-dfae-4501-bffd-283ddff4d4e7}; !- Winter Design Day Schedule Name

OS:ScheduleTypeLimits,
  {28be4f1b-8a22-41f5-925a-0c4496d823da}, !- Handle
  Lights Schedule Type Limits,            !- Name
  0,                                      !- Lower Limit Value {BasedOnField A4}
  1,                                      !- Upper Limit Value {BasedOnField A4}
  Continuous,                             !- Numeric Type
  Dimensionless;                          !- Unit Type

OS:Schedule:Day,
  {fed16097-db7b-49e1-a75c-e67e9ba808c8}, !- Handle
  0600|2200|SmallHotel|Storage|lighting |default, !- Name
  {28be4f1b-8a22-41f5-925a-0c4496d823da}, !- Schedule Type Limits Name
  ,                                       !- Interpolate to Timestep
  7,                                      !- Hour 1
  0,                                      !- Minute 1
  0.1,                                    !- Value Until Time 1
  8,                                      !- Hour 2
  0,                                      !- Minute 2
  0.2,                                    !- Value Until Time 2
  18,                                     !- Hour 3
  0,                                      !- Minute 3
  0.4,                                    !- Value Until Time 3
  22,                                     !- Hour 4
  0,                                      !- Minute 4
  0.2,                                    !- Value Until Time 4
  24,                                     !- Hour 5
  0,                                      !- Minute 5
  0.1;                                    !- Value Until Time 5

OS:Schedule:Day,
  {a1d60afd-89f3-4085-913b-893b4ddd28e0}, !- Handle
  0600|2200|SmallHotel|Storage|lighting Summer Design Day, !- Name
  {28be4f1b-8a22-41f5-925a-0c4496d823da}, !- Schedule Type Limits Name
  ,                                       !- Interpolate to Timestep
  7,                                      !- Hour 1
  0,                                      !- Minute 1
  0.1,                                    !- Value Until Time 1
  8,                                      !- Hour 2
  0,                                      !- Minute 2
  0.2,                                    !- Value Until Time 2
  18,                                     !- Hour 3
  0,                                      !- Minute 3
  1,                                      !- Value Until Time 3
  22,                                     !- Hour 4
  0,                                      !- Minute 4
  0.2,                                    !- Value Until Time 4
  24,                                     !- Hour 5
  0,                                      !- Minute 5
  0.1;                                    !- Value Until Time 5

OS:Schedule:Day,
  {c597318a-dfae-4501-bffd-283ddff4d4e7}, !- Handle
  0600|2200|SmallHotel|Storage|lighting Winter Design Day, !- Name
  {28be4f1b-8a22-41f5-925a-0c4496d823da}, !- Schedule Type Limits Name
  ,                                       !- Interpolate to Timestep
  24,                                     !- Hour 1
  0,                                      !- Minute 1
  0.1;                                    !- Value Until Time 1

OS:Schedule:Ruleset,
  {5f3045a9-0997-41e6-bea8-56f11cfef6f0}, !- Handle
  0600|2200|SmallHotel|Laundry|elec_equip, !- Name
  {04c481cd-2847-4f60-9a85-09c69fb9b5ec}, !- Schedule Type Limits Name
  {956c294d-2751-4f3e-bc88-a4caca2aece3}, !- Default Day Schedule Name
  {cf3b6dae-980b-4852-956e-623fcfda952a}, !- Summer Design Day Schedule Name
  {59b30981-ac0e-434f-a85c-065a148b9085}; !- Winter Design Day Schedule Name

OS:ScheduleTypeLimits,
  {04c481cd-2847-4f60-9a85-09c69fb9b5ec}, !- Handle
  Equipment Schedule Type Limits,         !- Name
  0,                                      !- Lower Limit Value {BasedOnField A4}
  1,                                      !- Upper Limit Value {BasedOnField A4}
  Continuous,                             !- Numeric Type
  Dimensionless;                          !- Unit Type

OS:Schedule:Day,
  {956c294d-2751-4f3e-bc88-a4caca2aece3}, !- Handle
  0600|2200|SmallHotel|Laundry|elec_equip |default, !- Name
  {04c481cd-2847-4f60-9a85-09c69fb9b5ec}, !- Schedule Type Limits Name
  ,                                       !- Interpolate to Timestep
  8,                                      !- Hour 1
  0,                                      !- Minute 1
  0,                                      !- Value Until Time 1
  16,                                     !- Hour 2
  0,                                      !- Minute 2
  1,                                      !- Value Until Time 2
  24,                                     !- Hour 3
  0,                                      !- Minute 3
  0;                                      !- Value Until Time 3

OS:Schedule:Day,
  {cf3b6dae-980b-4852-956e-623fcfda952a}, !- Handle
  0600|2200|SmallHotel|Laundry|elec_equip Summer Design Day, !- Name
  {04c481cd-2847-4f60-9a85-09c69fb9b5ec}, !- Schedule Type Limits Name
  ,                                       !- Interpolate to Timestep
  8,                                      !- Hour 1
  0,                                      !- Minute 1
  0,                                      !- Value Until Time 1
  16,                                     !- Hour 2
  0,                                      !- Minute 2
  1,                                      !- Value Until Time 2
  24,                                     !- Hour 3
  0,                                      !- Minute 3
  0;                                      !- Value Until Time 3

OS:Schedule:Day,
  {59b30981-ac0e-434f-a85c-065a148b9085}, !- Handle
  0600|2200|SmallHotel|Laundry|elec_equip Winter Design Day, !- Name
  {04c481cd-2847-4f60-9a85-09c69fb9b5ec}, !- Schedule Type Limits Name
  ,                                       !- Interpolate to Timestep
  24,                                     !- Hour 1
  0,                                      !- Minute 1
  0;                                      !- Value Until Time 1

OS:Schedule:Ruleset,
  {f0dd7968-8178-4957-ac92-a9aee5bc06be}, !- Handle
  0600|2200|SmallHotel|Office|occ,        !- Name
  {6887fe40-f8eb-4a0a-b36e-d4f20305406b}, !- Schedule Type Limits Name
  {b90061c3-5a47-4ed1-8683-ddd720a1e6cd}, !- Default Day Schedule Name
  {232ea88d-00a7-4fc4-9f3d-6cc518a2a18b}, !- Summer Design Day Schedule Name
  {ff307c31-0110-43b8-bb34-4396818ca000}; !- Winter Design Day Schedule Name

OS:ScheduleTypeLimits,
  {6887fe40-f8eb-4a0a-b36e-d4f20305406b}, !- Handle
  Occupancy Schedule Type Limits,         !- Name
  0,                                      !- Lower Limit Value {BasedOnField A4}
  1,                                      !- Upper Limit Value {BasedOnField A4}
  Continuous,                             !- Numeric Type
  Dimensionless;                          !- Unit Type

OS:Schedule:Day,
  {b90061c3-5a47-4ed1-8683-ddd720a1e6cd}, !- Handle
  0600|2200|SmallHotel|Office|occ |default, !- Name
  {6887fe40-f8eb-4a0a-b36e-d4f20305406b}, !- Schedule Type Limits Name
  ,                                       !- Interpolate to Timestep
  6,                                      !- Hour 1
  0,                                      !- Minute 1
  0.2,                                    !- Value Until Time 1
  7,                                      !- Hour 2
  0,                                      !- Minute 2
  0.3,                                    !- Value Until Time 2
  8,                                      !- Hour 3
  0,                                      !- Minute 3
  0.4,                                    !- Value Until Time 3
  12,                                     !- Hour 4
  0,                                      !- Minute 4
  1,                                      !- Value Until Time 4
  13,                                     !- Hour 5
  0,                                      !- Minute 5
  0.5,                                    !- Value Until Time 5
  17,                                     !- Hour 6
  0,                                      !- Minute 6
  1,                                      !- Value Until Time 6
  18,                                     !- Hour 7
  0,                                      !- Minute 7
  0.4,                                    !- Value Until Time 7
  19,                                     !- Hour 8
  0,                                      !- Minute 8
  0.3,                                    !- Value Until Time 8
  24,                                     !- Hour 9
  0,                                      !- Minute 9
  0.2;                                    !- Value Until Time 9

OS:Schedule:Day,
  {232ea88d-00a7-4fc4-9f3d-6cc518a2a18b}, !- Handle
  0600|2200|SmallHotel|Office|occ Summer Design Day, !- Name
  {6887fe40-f8eb-4a0a-b36e-d4f20305406b}, !- Schedule Type Limits Name
  ,                                       !- Interpolate to Timestep
  6,                                      !- Hour 1
  0,                                      !- Minute 1
  0.2,                                    !- Value Until Time 1
  19,                                     !- Hour 2
  0,                                      !- Minute 2
  1,                                      !- Value Until Time 2
  24,                                     !- Hour 3
  0,                                      !- Minute 3
  0.2;                                    !- Value Until Time 3

OS:Schedule:Day,
  {ff307c31-0110-43b8-bb34-4396818ca000}, !- Handle
  0600|2200|SmallHotel|Office|occ Winter Design Day, !- Name
  {6887fe40-f8eb-4a0a-b36e-d4f20305406b}, !- Schedule Type Limits Name
  ,                                       !- Interpolate to Timestep
  24,                                     !- Hour 1
  0,                                      !- Minute 1
  0;                                      !- Value Until Time 1

OS:Schedule:Rule,
  {9ac1839d-886f-487f-95b6-92d5ac8cf11f}, !- Handle
  0600|2200|SmallHotel|Office|occ |1/1-12/31|Sat/Sun Rule, !- Name
  {f0dd7968-8178-4957-ac92-a9aee5bc06be}, !- Schedule Ruleset Name
  0,                                      !- Rule Order
  {ef9c0e6c-573b-44b6-a484-0c60e4891fe5}, !- Day Schedule Name
  Yes,                                    !- Apply Sunday
  ,                                       !- Apply Monday
  ,                                       !- Apply Tuesday
  ,                                       !- Apply Wednesday
  ,                                       !- Apply Thursday
  ,                                       !- Apply Friday
  Yes,                                    !- Apply Saturday
  ,                                       !- Apply Holiday
  DateRange,                              !- Date Specification Type
  1,                                      !- Start Month
  1,                                      !- Start Day
  12,                                     !- End Month
  31;                                     !- End Day

OS:Schedule:Day,
  {ef9c0e6c-573b-44b6-a484-0c60e4891fe5}, !- Handle
  0600|2200|SmallHotel|Office|occ |1/1-12/31|Sat/Sun, !- Name
  {6887fe40-f8eb-4a0a-b36e-d4f20305406b}, !- Schedule Type Limits Name
  ,                                       !- Interpolate to Timestep
  7,                                      !- Hour 1
  0,                                      !- Minute 1
  0.2,                                    !- Value Until Time 1
  8,                                      !- Hour 2
  0,                                      !- Minute 2
  0.3,                                    !- Value Until Time 2
  17,                                     !- Hour 3
  0,                                      !- Minute 3
  0.5,                                    !- Value Until Time 3
  18,                                     !- Hour 4
  0,                                      !- Minute 4
  0.3,                                    !- Value Until Time 4
  24,                                     !- Hour 5
  0,                                      !- Minute 5
  0.2;                                    !- Value Until Time 5

OS:Schedule:Ruleset,
  {6eb5a0b2-cbdc-4363-8daf-dcf85ab981ce}, !- Handle
  0600|2200|SmallHotel|default|hvac,      !- Name
  {e979055c-37d4-4453-a418-1a04972476c0}, !- Schedule Type Limits Name
  {144ebb12-76b3-48c2-bb71-e59ab491383f}, !- Default Day Schedule Name
  {a12ba5ac-1100-4076-8a30-ac0d82dec6d1}, !- Summer Design Day Schedule Name
  {469462ae-5aad-4bfc-98a4-621c00e31196}; !- Winter Design Day Schedule Name

OS:ScheduleTypeLimits,
  {e979055c-37d4-4453-a418-1a04972476c0}, !- Handle
  HVAC Operation Schedule Type Limits,    !- Name
  0,                                      !- Lower Limit Value {BasedOnField A4}
  1,                                      !- Upper Limit Value {BasedOnField A4}
  Discrete,                               !- Numeric Type
  Availability;                           !- Unit Type

OS:Schedule:Day,
  {144ebb12-76b3-48c2-bb71-e59ab491383f}, !- Handle
  0600|2200|SmallHotel|default|hvac |default, !- Name
  {e979055c-37d4-4453-a418-1a04972476c0}, !- Schedule Type Limits Name
  ,                                       !- Interpolate to Timestep
  24,                                     !- Hour 1
  0,                                      !- Minute 1
  1;                                      !- Value Until Time 1

OS:Schedule:Day,
  {a12ba5ac-1100-4076-8a30-ac0d82dec6d1}, !- Handle
  0600|2200|SmallHotel|default|hvac Summer Design Day, !- Name
  {e979055c-37d4-4453-a418-1a04972476c0}, !- Schedule Type Limits Name
  ,                                       !- Interpolate to Timestep