
OS:Version,
  {c762ace9-1023-4e5c-8b39-782d3cb0bc0d}, !- Handle
  1.6.0;                                  !- Version Identifier

OS:ClimateZones,
  {135edfab-17e7-40db-a436-27d385a8cd6d}, !- Handle
  ,                                       !- Active Institution
  ,                                       !- Active Year
  ASHRAE,                                 !- Climate Zone Institution Name 1
  ANSI/ASHRAE Standard 169,               !- Climate Zone Document Name 1
  2006,                                   !- Climate Zone Document Year 1
  ,                                       !- Climate Zone Value 1
  CEC,                                    !- Climate Zone Institution Name 2
  California Climate Zone Descriptions,   !- Climate Zone Document Name 2
  1995,                                   !- Climate Zone Document Year 2
  ;                                       !- Climate Zone Value 2

OS:YearDescription,
  {513d8dda-86cb-442a-b01c-1f7f0e0ac70e}; !- Handle

OS:RadianceParameters,
  {270a96f1-3c86-4b75-a667-cdf22790e2c8}, !- Handle
  1,                                      !- Accumulated Rays per Record
  0,                                      !- Direct Threshold
  1,                                      !- Direct Certainty
  1,                                      !- Direct Jitter
  1,                                      !- Direct Pretest
  6,                                      !- Ambient Bounces VMX
  2,                                      !- Ambient Bounces DMX
  4050,                                   !- Ambient Divisions VMX
  512,                                    !- Ambient Divisions DMX
  256,                                    !- Ambient Supersamples
  0.001,                                  !- Limit Weight VMX
  0.001,                                  !- Limit Weight DMX
  500,                                    !- Klems Sampling Density
  146;                                    !- Sky Discretization Resolution

OS:SimulationControl,
  {2c487a4c-bac9-4ac5-b669-1e49d9da7c2b}, !- Handle
  ,                                       !- Do Zone Sizing Calculation
  ,                                       !- Do System Sizing Calculation
  ,                                       !- Do Plant Sizing Calculation
  No,                                     !- Run Simulation for Sizing Periods
  ,                                       !- Run Simulation for Weather File Run Periods
  0.04,                                   !- Loads Convergence Tolerance Value
  ,                                       !- Temperature Convergence Tolerance Value {deltaC}
  ,                                       !- Solar Distribution
  ,                                       !- Maximum Number of Warmup Days
  2;                                      !- Minimum Number of Warmup Days

OS:Sizing:Parameters,
  {dde5af6f-7923-4600-a28a-7556673a0266}, !- Handle
  1.25,                                   !- Heating Sizing Factor
  1.15;                                   !- Cooling Sizing Factor

OS:ProgramControl,
  {05027a99-f2b3-4aeb-afc6-1425fbb4371d}; !- Handle

OS:Timestep,
  {4ebc9f1e-4707-402e-9844-67eb1ffbd522}, !- Handle
  2;                                      !- Number of Timesteps per Hour

OS:OutputControl:ReportingTolerances,
  {65797aa2-06a9-45fe-b69d-bc6e060399d3}; !- Handle

OS:ConvergenceLimits,
  {9fc11aba-8822-4f3d-970c-46391ba4040d}; !- Handle

OS:ShadowCalculation,
  {ca758bea-4416-4626-9bba-3d8795c79bd6}, !- Handle
  7,                                      !- Calculation Frequency
  15000;                                  !- Maximum Figures in Shadow Overlap Calculations

OS:SurfaceConvectionAlgorithm:Inside,
  {aaabfc36-718a-4ab0-b622-f186ebb45230}, !- Handle
  TARP;                                   !- Algorithm

OS:SurfaceConvectionAlgorithm:Outside,
  {9a0a9f6f-4bbd-4b12-a121-9492a1fcd7d6}, !- Handle
  DOE-2;                                  !- Algorithm

OS:HeatBalanceAlgorithm,
  {9d93e563-e1e0-46d7-9e39-d1c8aceb7212}, !- Handle
  ConductionTransferFunction,             !- Algorithm
  200;                                    !- Surface Temperature Upper Limit {F}

OS:ZoneAirHeatBalanceAlgorithm,
  {8520d93e-310f-4696-9bcd-36228bfdd743}, !- Handle
  AnalyticalSolution;                     !- Algorithm

OS:ZoneAirContaminantBalance,
  {eb5fc3ae-fb22-4160-8fcb-3e3b22b000d3}; !- Handle

OS:ZoneCapacitanceMultiplier:ResearchSpecial,
  {4020ce4f-5a7a-4849-8028-8305d7b751b1}, !- Handle
  ,                                       !- Temperature Capacity Multiplier
  ,                                       !- Humidity Capacity Multiplier
  ;                                       !- Carbon Dioxide Capacity Multiplier

OS:RunPeriod,
  {28df894d-6af9-4fb8-8f56-df1753344aa3}, !- Handle
  Run Period 1,                           !- Name
  1,                                      !- Begin Month
  1,                                      !- Begin Day of Month
  12,                                     !- End Month
  31,                                     !- End Day of Month
  ,                                       !- Use Weather File Holidays and Special Days
  ,                                       !- Use Weather File Daylight Saving Period
  ,                                       !- Apply Weekend Holiday Rule
  ,                                       !- Use Weather File Rain Indicators
  ,                                       !- Use Weather File Snow Indicators
  ;                                       !- Number of Times Runperiod to be Repeated

OS:Building,
  {bf305633-c5a1-4881-9edf-ca5e1a8e1274}, !- Handle
  Building 1,                             !- Name
  ,                                       !- Building Sector Type
  ,                                       !- North Axis {deg}
  ,                                       !- Nominal Floor to Floor Height {m}
  ,                                       !- Space Type Name
  ,                                       !- Default Construction Set Name
  {86374868-d077-4134-aec2-a0b7f725b93c}, !- Default Schedule Set Name
  ,                                       !- Standards Number of Stories
  ,                                       !- Standards Number of Above Ground Stories
  SmallHotel;                             !- Standards Building Type

OS:LifeCycleCost:Parameters,
  {231cf8a0-f0e7-4251-a99f-11f0d464e661}, !- Handle
  FEMP,                                   !- Analysis Type
  ,                                       !- Discounting Convention
  ,                                       !- Inflation Approach
  ,                                       !- Real Discount Rate
  ,                                       !- Nominal Discount Rate
  ,                                       !- Inflation
  ,                                       !- Base Date Month
  ,                                       !- Base Date Year
  ,                                       !- Service Date Month
  ,                                       !- Service Date Year
  ,                                       !- Length of Study Period in Years
  ,                                       !- Tax Rate
  ,                                       !- Depreciation Method
  Yes;                                    !- Use NIST Fuel Escalation Rates

OS:Facility,
  {3ba8e45b-b833-44eb-a723-ea6c3946dc96}; !- Handle

OS:SpaceType,
  {7c495a8a-0ca2-4847-b176-4bc0bf5a65a4}, !- Handle
  SmallHotel|BlendGuest|DOE Ref 2004|ASHRAE 169-2006-5A, !- Name
  {176ebfb5-d6c2-4416-88fe-b6a8e346795e}, !- Default Construction Set Name
  ,                                       !- Default Schedule Set Name
  {3c904bde-2cee-4dce-b14d-860fbe18cb28}, !- Group Rendering Name
  {8c5a1fae-104c-479e-adc5-5da2d799a3ef}, !- Design Specification Outdoor Air Object Name
  SmallHotel,                             !- Standards Building Type
  BlendGuest;                             !- Standards Space Type

OS:Rendering:Color,
  {3c904bde-2cee-4dce-b14d-860fbe18cb28}, !- Handle
  Rendering Color 1,                      !- Name
  78,                                     !- Rendering Red Value
  167,                                    !- Rendering Green Value
  222;                                    !- Rendering Blue Value

OS:SpaceType,
  {111ce862-19c1-4143-aca9-fe0cd1cf0400}, !- Handle
  SmallHotel|BlendMtg|DOE Ref 2004|ASHRAE 169-2006-5A, !- Name
  {176ebfb5-d6c2-4416-88fe-b6a8e346795e}, !- Default Construction Set Name
  ,                                       !- Default Schedule Set Name
  {dc416d53-7682-46d7-815e-dec8338c0ac6}, !- Group Rendering Name
  {9ca7ef94-adea-4790-9626-ff3f14aaf7cb}, !- Design Specification Outdoor Air Object Name
  SmallHotel,                             !- Standards Building Type
  BlendMtg;                               !- Standards Space Type

OS:Rendering:Color,
  {dc416d53-7682-46d7-815e-dec8338c0ac6}, !- Handle
  Rendering Color 2,                      !- Name
  120,                                    !- Rendering Red Value
  230,                                    !- Rendering Green Value
  199;                                    !- Rendering Blue Value

OS:SpaceType,
  {fee4dafa-3f44-4d2e-86ca-464daae02e95}, !- Handle
  SmallHotel|BlendMisc|DOE Ref 2004|ASHRAE 169-2006-5A, !- Name
  {176ebfb5-d6c2-4416-88fe-b6a8e346795e}, !- Default Construction Set Name
  ,                                       !- Default Schedule Set Name
  {75b3f321-cbbd-489a-9117-942782882864}, !- Group Rendering Name
  {240d39a3-4d0a-4176-b878-9ee885417e05}, !- Design Specification Outdoor Air Object Name
  SmallHotel,                             !- Standards Building Type
  BlendMisc;                              !- Standards Space Type

OS:Rendering:Color,
  {75b3f321-cbbd-489a-9117-942782882864}, !- Handle
  Rendering Color 3,                      !- Name
  230,                                    !- Rendering Red Value
  157,                                    !- Rendering Green Value
  120;                                    !- Rendering Blue Value

OS:SpaceType,
  {84d9c478-f010-4226-b4cf-c09307d8547e}, !- Handle
  SmallHotel|Laundry|DOE Ref 2004|ASHRAE 169-2006-5A, !- Name
  {176ebfb5-d6c2-4416-88fe-b6a8e346795e}, !- Default Construction Set Name
  {907ff61a-b81b-4558-bb96-5c347a70db5a}, !- Default Schedule Set Name
  {c4e29a00-85a4-423e-8eb1-5eeda9272f42}, !- Group Rendering Name
  {ff5cbe5d-4c64-4873-a28a-ad8af633c6a9}, !- Design Specification Outdoor Air Object Name
  SmallHotel,                             !- Standards Building Type
  Laundry;                                !- Standards Space Type

OS:Rendering:Color,
  {c4e29a00-85a4-423e-8eb1-5eeda9272f42}, !- Handle
  Rendering Color 4,                      !- Name
  120,                                    !- Rendering Red Value
  149,                                    !- Rendering Green Value
  230;                                    !- Rendering Blue Value

OS:SpaceType,
  {c6a35a28-8445-4ac5-a581-07448be6a49a}, !- Handle
  SmallHotel|Exercise|DOE Ref 2004|ASHRAE 169-2006-5A, !- Name
  {176ebfb5-d6c2-4416-88fe-b6a8e346795e}, !- Default Construction Set Name
  {a5053f34-3fb2-4a38-9b1a-eb03ee679906}, !- Default Schedule Set Name
  {09136cab-1c55-413a-bd80-2afb4689ad89}, !- Group Rendering Name
  {5fa69e3b-624a-484a-a893-7da4a4125b0f}, !- Design Specification Outdoor Air Object Name
  SmallHotel,                             !- Standards Building Type
  Exercise;                               !- Standards Space Type

OS:Rendering:Color,
  {09136cab-1c55-413a-bd80-2afb4689ad89}, !- Handle
  Rendering Color 5,                      !- Name
  154,                                    !- Rendering Red Value
  230,                                    !- Rendering Green Value
  120;                                    !- Rendering Blue Value

OS:Schedule:Ruleset,
  {ab5c3dce-2756-474b-9211-7e347b230d2d}, !- Handle
  0600|2200|SmallHotel|default|hoo,       !- Name
  {345ca7ad-1bd9-4d88-b0bd-1340caffbb1f}, !- Schedule Type Limits Name
  {102a8ef5-47d1-4962-8318-a680e8646766}, !- Default Day Schedule Name
  {e8fc84a7-7cc4-4b4c-9693-dbf20d193b8a}, !- Summer Design Day Schedule Name
  {b34b9c80-4a92-4cf9-a073-f197f4eb9561}; !- Winter Design Day Schedule Name

OS:Schedule:Day,
  {102a8ef5-47d1-4962-8318-a680e8646766}, !- Handle
  0600|2200|SmallHotel|default|hoo Schedule Week Day, !- Name
  {345ca7ad-1bd9-4d88-b0bd-1340caffbb1f}, !- Schedule Type Limits Name
  ,                                       !- Interpolate to Timestep
  6,                                      !- Hour 1
  0,                                      !- Minute 1
  0,                                      !- Value Until Time 1
  22,                                     !- Hour 2
  0,                                      !- Minute 2
  1,                                      !- Value Until Time 2
  24,                                     !- Hour 3
  0,                                      !- Minute 3
  0;                                      !- Value Until Time 3

OS:Schedule:Day,
  {af93dd7a-8bff-42e6-b252-0e35db12c13f}, !- Handle
  Schedule Day 2,                         !- Name
  ,                                       !- Schedule Type Limits Name
  ,                                       !- Interpolate to Timestep
  24,                                     !- Hour 1
  0,                                      !- Minute 1
  0;                                      !- Value Until Time 1

OS:Schedule:Day,
  {b34b9c80-4a92-4cf9-a073-f197f4eb9561}, !- Handle
  0600|2200|SmallHotel|default|hoo Winter Design Day, !- Name
  {345ca7ad-1bd9-4d88-b0bd-1340caffbb1f}, !- Schedule Type Limits Name
  ,                                       !- Interpolate to Timestep
  24,                                     !- Hour 1
  0,                                      !- Minute 1
  0;                                      !- Value Until Time 1

OS:Schedule:Day,
  {211df37c-3e4f-4f3d-b598-edd241399b6e}, !- Handle
  Schedule Day 3,                         !- Name
  ,                                       !- Schedule Type Limits Name
  ,                                       !- Interpolate to Timestep
  24,                                     !- Hour 1
  0,                                      !- Minute 1
  0;                                      !- Value Until Time 1

OS:Schedule:Day,
  {e8fc84a7-7cc4-4b4c-9693-dbf20d193b8a}, !- Handle
  0600|2200|SmallHotel|default|hoo Summer Design Day, !- Name
  {345ca7ad-1bd9-4d88-b0bd-1340caffbb1f}, !- Schedule Type Limits Name
  ,                                       !- Interpolate to Timestep
  24,                                     !- Hour 1
  0,                                      !- Minute 1
  1;                                      !- Value Until Time 1

OS:DefaultScheduleSet,
  {86374868-d077-4134-aec2-a0b7f725b93c}, !- Handle
  Building Hours of Operation,            !- Name
  {ab5c3dce-2756-474b-9211-7e347b230d2d}, !- Hours of Operation Schedule Name
  ,                                       !- Number of People Schedule Name
  ,                                       !- People Activity Level Schedule Name
  ,                                       !- Lighting Schedule Name
  ,                                       !- Electric Equipment Schedule Name
  ,                                       !- Gas Equipment Schedule Name
  ,                                       !- Hot Water Equipment Schedule Name
  ,                                       !- Infiltration Schedule Name
  ,                                       !- Steam Equipment Schedule Name
  ;                                       !- Other Equipment Schedule Name

OS:ScheduleTypeLimits,
  {345ca7ad-1bd9-4d88-b0bd-1340caffbb1f}, !- Handle
  OnOff,                                  !- Name
  0,                                      !- Lower Limit Value {BasedOnField A4}
  1,                                      !- Upper Limit Value {BasedOnField A4}
  Discrete,                               !- Numeric Type
  Availability;                           !- Unit Type

OS:Schedule:Ruleset,
  {d1e0488a-9134-4a6d-a3ba-6128c2b49376}, !- Handle
  0600|2200|SmallHotel|default|rh,        !- Name
  {1c8dfe5d-6ee3-4881-b13f-2b43f0c9992e}, !- Schedule Type Limits Name
  {cc0c7f8e-b9af-4427-a132-8d5d9e6a0719}, !- Default Day Schedule Name
  {20e62c9b-caf2-4f71-8f43-5f92bc651292}, !- Summer Design Day Schedule Name
  {e49c50d6-42d0-48d1-869d-2d28002a1beb}; !- Winter Design Day Schedule Name

OS:ScheduleTypeLimits,
  {1c8dfe5d-6ee3-4881-b13f-2b43f0c9992e}, !- Handle
  Dimensionless Schedule Type Limits,     !- Name
  ,                                       !- Lower Limit Value {BasedOnField A4}
  ,                                       !- Upper Limit Value {BasedOnField A4}
  Continuous,                             !- Numeric Type
  Dimensionless;                          !- Unit Type

OS:Schedule:Day,
  {cc0c7f8e-b9af-4427-a132-8d5d9e6a0719}, !- Handle
  0600|2200|SmallHotel|default|rh |default, !- Name
  {1c8dfe5d-6ee3-4881-b13f-2b43f0c9992e}, !- Schedule Type Limits Name
  ,                                       !- Interpolate to Timestep
  24,                                     !- Hour 1
  0,                                      !- Minute 1
  50;                                     !- Value Until Time 1

OS:Schedule:Day,
  {20e62c9b-caf2-4f71-8f43-5f92bc651292}, !- Handle
  0600|2200|SmallHotel|default|rh Summer Design Day, !- Name
  {1c8dfe5d-6ee3-4881-b13f-2b43f0c9992e}, !- Schedule Type Limits Name
  ,                                       !- Interpolate to Timestep
  24,                                     !- Hour 1
  0,                                      !- Minute 1
  50;                                     !- Value Until Time 1

OS:Schedule:Day,
  {e49c50d6-42d0-48d1-869d-2d28002a1beb}, !- Handle
  0600|2200|SmallHotel|default|rh Winter Design Day, !- Name
  {1c8dfe5d-6ee3-4881-b13f-2b43f0c9992e}, !- Schedule Type Limits Name
  ,                                       !- Interpolate to Timestep
  24,                                     !- Hour 1
  0,                                      !- Minute 1
  50;                                     !- Value Until Time 1

OS:Schedule:Ruleset,
  {ade230eb-6363-4b0e-8d45-5d3fc477dcc5}, !- Handle
  0600|2200|SmallHotel|default|elevator,  !- Name
  {0a726128-c126-43ba-a992-5de532617f79}, !- Schedule Type Limits Name
  {17c770bf-de5c-4078-b2f7-45a73cbaffa7}, !- Default Day Schedule Name
  {1c071233-7411-4eee-a06b-79efc9acdddd}, !- Summer Design Day Schedule Name
  {b4d1b69a-5860-4f11-b835-c2872ca0020b}; !- Winter Design Day Schedule Name

OS:ScheduleTypeLimits,
  {0a726128-c126-43ba-a992-5de532617f79}, !- Handle
  Elevators Schedule Type Limits,         !- Name
  0,                                      !- Lower Limit Value {BasedOnField A4}
  1,                                      !- Upper Limit Value {BasedOnField A4}
  Continuous,                             !- Numeric Type
  Dimensionless;                          !- Unit Type

OS:Schedule:Day,
  {17c770bf-de5c-4078-b2f7-45a73cbaffa7}, !- Handle
  0600|2200|SmallHotel|default|elevator |default, !- Name
  {0a726128-c126-43ba-a992-5de532617f79}, !- Schedule Type Limits Name
  ,                                       !- Interpolate to Timestep
  4,                                      !- Hour 1
  0,                                      !- Minute 1
  0.05,                                   !- Value Until Time 1
  5,                                      !- Hour 2
  0,                                      !- Minute 2
  0.1,                                    !- Value Until Time 2
  6,                                      !- Hour 3
  0,                                      !- Minute 3
  0.2,                                    !- Value Until Time 3
  7,                                      !- Hour 4
  0,                                      !- Minute 4
  0.4,                                    !- Value Until Time 4
  9,                                      !- Hour 5
  0,                                      !- Minute 5
  0.5,                                    !- Value Until Time 5
  10,                                     !- Hour 6
  0,                                      !- Minute 6
  0.35,                                   !- Value Until Time 6
  16,                                     !- Hour 7
  0,                                      !- Minute 7
  0.15,                                   !- Value Until Time 7
  17,                                     !- Hour 8
  0,                                      !- Minute 8
  0.35,                                   !- Value Until Time 8
  19,                                     !- Hour 9
  0,                                      !- Minute 9
  0.5,                                    !- Value Until Time 9
  21,                                     !- Hour 10
  0,                                      !- Minute 10
  0.4,                                    !- Value Until Time 10
  22,                                     !- Hour 11
  0,                                      !- Minute 11
  0.3,                                    !- Value Until Time 11
  23,                                     !- Hour 12
  0,                                      !- Minute 12
  0.2,                                    !- Value Until Time 12
  24,                                     !- Hour 13
  0,                                      !- Minute 13
  0.1;                                    !- Value Until Time 13

OS:Schedule:Day,
  {1c071233-7411-4eee-a06b-79efc9acdddd}, !- Handle
  0600|2200|SmallHotel|default|elevator Summer Design Day, !- Name
  {0a726128-c126-43ba-a992-5de532617f79}, !- Schedule Type Limits Name
  ,                                       !- Interpolate to Timestep
  4,                                      !- Hour 1
  0,                                      !- Minute 1
  0.05,                                   !- Value Until Time 1
  5,                                      !- Hour 2
  0,                                      !- Minute 2
  0.1,                                    !- Value Until Time 2
  6,                                      !- Hour 3
  0,                                      !- Minute 3
  0.2,                                    !- Value Until Time 3
  7,                                      !- Hour 4
  0,                                      !- Minute 4
  0.4,                                    !- Value Until Time 4
  9,                                      !- Hour 5
  0,                                      !- Minute 5
  0.5,                                    !- Value Until Time 5
  10,                                     !- Hour 6
  0,                                      !- Minute 6
  0.35,                                   !- Value Until Time 6
  16,                                     !- Hour 7
  0,                                      !- Minute 7
  0.15,                                   !- Value Until Time 7
  17,                                     !- Hour 8
  0,                                      !- Minute 8
  0.35,                                   !- Value Until Time 8
  19,                                     !- Hour 9
  0,                                      !- Minute 9
  0.5,                                    !- Value Until Time 9
  21,                                     !- Hour 10
  0,                                      !- Minute 10
  0.4,                                    !- Value Until Time 10
  22,                                     !- Hour 11
  0,                                      !- Minute 11
  0.3,                                    !- Value Until Time 11
  23,                                     !- Hour 12
  0,                                      !- Minute 12
  0.2,                                    !- Value Until Time 12
  24,                                     !- Hour 13
  0,                                      !- Minute 13
  0.1;                                    !- Value Until Time 13

OS:Schedule:Day,
  {b4d1b69a-5860-4f11-b835-c2872ca0020b}, !- Handle
  0600|2200|SmallHotel|default|elevator Winter Design Day, !- Name
  {0a726128-c126-43ba-a992-5de532617f79}, !- Schedule Type Limits Name
  ,                                       !- Interpolate to Timestep
  4,                                      !- Hour 1
  0,                                      !- Minute 1
  0.05,                                   !- Value Until Time 1
  5,                                      !- Hour 2
  0,                                      !- Minute 2
  0.1,                                    !- Value Until Time 2
  6,                                      !- Hour 3
  0,                                      !- Minute 3
  0.2,                                    !- Value Until Time 3
  7,                                      !- Hour 4
  0,                                      !- Minute 4
  0.4,                                    !- Value Until Time 4
  9,                                      !- Hour 5
  0,                                      !- Minute 5
  0.5,                                    !- Value Until Time 5
  10,                                     !- Hour 6
  0,                                      !- Minute 6
  0.35,                                   !- Value Until Time 6
  16,                                     !- Hour 7
  0,                                      !- Minute 7
  0.15,                                   !- Value Until Time 7
  17,                                     !- Hour 8
  0,                                      !- Minute 8
  0.35,                                   !- Value Until Time 8
  19,                                     !- Hour 9
  0,                                      !- Minute 9
  0.5,                                    !- Value Until Time 9
  21,                                     !- Hour 10
  0,                                      !- Minute 10
  0.4,                                    !- Value Until Time 10
  22,                                     !- Hour 11
  0,                                      !- Minute 11
  0.3,                                    !- Value Until Time 11
  23,                                     !- Hour 12
  0,                                      !- Minute 12
  0.2,                                    !- Value Until Time 12
  24,                                     !- Hour 13
  0,                                      !- Minute 13
  0.1;                                    !- Value Until Time 13

OS:Schedule:Ruleset,
  {a27fdd1f-8554-4dc9-ab45-0be7a18329d2}, !- Handle
  0600|2200|SmallHotel|Office|lighting,   !- Name
  {472d6e77-eec7-4dbc-9a50-2843e21757eb}, !- Schedule Type Limits Name
  {e4c24e0c-8489-41be-8bd6-8add4be3ffbb}, !- Default Day Schedule Name
  {90ad5be1-5875-4dad-939f-ed3e6500acf1}, !- Summer Design Day Schedule Name
  {1e1f9c8d-1ffa-451d-b44d-4fce88f321da}; !- Winter Design Day Schedule Name

OS:ScheduleTypeLimits,
  {472d6e77-eec7-4dbc-9a50-2843e21757eb}, !- Handle
  Lights Schedule Type Limits,            !- Name
  0,                                      !- Lower Limit Value {BasedOnField A4}
  1,                                      !- Upper Limit Value {BasedOnField A4}
  Continuous,                             !- Numeric Type
  Dimensionless;                          !- Unit Type

OS:Schedule:Day,
  {e4c24e0c-8489-41be-8bd6-8add4be3ffbb}, !- Handle
  0600|2200|SmallHotel|Office|lighting |default, !- Name
  {472d6e77-eec7-4dbc-9a50-2843e21757eb}, !- Schedule Type Limits Name
  ,                                       !- Interpolate to Timestep
  7,                                      !- Hour 1
  0,                                      !- Minute 1
  0.5,                                    !- Value Until Time 1
  8,                                      !- Hour 2
  0,                                      !- Minute 2
  0.61,                                   !- Value Until Time 2
  12,                                     !- Hour 3
  0,                                      !- Minute 3
  0.9,                                    !- Value Until Time 3
  13,                                     !- Hour 4
  0,                                      !- Minute 4
  0.8,                                    !- Value Until Time 4
  17,                                     !- Hour 5
  0,                                      !- Minute 5
  0.9,                                    !- Value Until Time 5
  18,                                     !- Hour 6
  0,                                      !- Minute 6
  0.61,                                   !- Value Until Time 6
  24,                                     !- Hour 7
  0,                                      !- Minute 7
  0.5;                                    !- Value Until Time 7

OS:Schedule:Day,
  {90ad5be1-5875-4dad-939f-ed3e6500acf1}, !- Handle
  0600|2200|SmallHotel|Office|lighting Summer Design Day, !- Name
  {472d6e77-eec7-4dbc-9a50-2843e21757eb}, !- Schedule Type Limits Name
  ,                                       !- Interpolate to Timestep
  24,                                     !- Hour 1
  0,                                      !- Minute 1
  1;                                      !- Value Until Time 1

OS:Schedule:Day,
  {1e1f9c8d-1ffa-451d-b44d-4fce88f321da}, !- Handle
  0600|2200|SmallHotel|Office|lighting Winter Design Day, !- Name
  {472d6e77-eec7-4dbc-9a50-2843e21757eb}, !- Schedule Type Limits Name
  ,                                       !- Interpolate to Timestep
  24,                                     !- Hour 1
  0,                                      !- Minute 1
  0.5;                                    !- Value Until Time 1

OS:Schedule:Ruleset,
  {d3dfaeb1-5f82-41a5-82e3-0472f03819cd}, !- Handle
  0600|2200|SmallHotel|default|air_velocity, !- Name
  {1c8dfe5d-6ee3-4881-b13f-2b43f0c9992e}, !- Schedule Type Limits Name
  {74daf090-b3b5-4186-ac00-6f68a8e52701}, !- Default Day Schedule Name
  {19486070-3258-4bfb-9e31-465dbf156744}, !- Summer Design Day Schedule Name