
OS:Version,
  {e6c7cdc2-22e3-46bc-9f70-9e85d3ab5682}, !- Handle
  1.6.0;                                  !- Version Identifier

OS:ClimateZones,
  {135edfab-17e7-40db-a436-27d385a8cd6d}, !- Handle
  ,                                       !- Active Institution
  ,                                       !- Active Year
  ASHRAE,                                 !- Climate Zone Institution Name 1
  ANSI/ASHRAE Standard 169,               !- Climate Zone Document Name 1
  2006,                                   !- Climate Zone Document Year 1
  ,                                       !- Climate Zone Value 1
  CEC,                                    !- Climate Zone Institution Name 2
  California Climate Zone Descriptions,   !- Climate Zone Document Name 2
  1995,                                   !- Climate Zone Document Year 2
  ;                                       !- Climate Zone Value 2

OS:YearDescription,
  {513d8dda-86cb-442a-b01c-1f7f0e0ac70e}; !- Handle

OS:RadianceParameters,
  {270a96f1-3c86-4b75-a667-cdf22790e2c8}, !- Handle
  1,                                      !- Accumulated Rays per Record
  0,                                      !- Direct Threshold
  1,                                      !- Direct Certainty
  1,                                      !- Direct Jitter
  1,                                      !- Direct Pretest
  6,                                      !- Ambient Bounces VMX
  2,                                      !- Ambient Bounces DMX
  4050,                                   !- Ambient Divisions VMX
  512,                                    !- Ambient Divisions DMX
  256,                                    !- Ambient Supersamples
  0.001,                                  !- Limit Weight VMX
  0.001,                                  !- Limit Weight DMX
  500,                                    !- Klems Sampling Density
  146;                                    !- Sky Discretization Resolution

OS:SimulationControl,
  {2c487a4c-bac9-4ac5-b669-1e49d9da7c2b}, !- Handle
  ,                                       !- Do Zone Sizing Calculation
  ,                                       !- Do System Sizing Calculation
  ,                                       !- Do Plant Sizing Calculation
  No,                                     !- Run Simulation for Sizing Periods
  ,                                       !- Run Simulation for Weather File Run Periods
  0.04,                                   !- Loads Convergence Tolerance Value
  ,                                       !- Temperature Convergence Tolerance Value {deltaC}
  ,                                       !- Solar Distribution
  ,                                       !- Maximum Number of Warmup Days
  2;                                      !- Minimum Number of Warmup Days

OS:Sizing:Parameters,
  {dde5af6f-7923-4600-a28a-7556673a0266}, !- Handle
  1.25,                                   !- Heating Sizing Factor
  1.15;                                   !- Cooling Sizing Factor

OS:ProgramControl,
  {05027a99-f2b3-4aeb-afc6-1425fbb4371d}; !- Handle

OS:Timestep,
  {4ebc9f1e-4707-402e-9844-67eb1ffbd522}, !- Handle
  2;                                      !- Number of Timesteps per Hour

OS:OutputControl:ReportingTolerances,
  {65797aa2-06a9-45fe-b69d-bc6e060399d3}; !- Handle

OS:ConvergenceLimits,
  {9fc11aba-8822-4f3d-970c-46391ba4040d}; !- Handle

OS:ShadowCalculation,
  {ca758bea-4416-4626-9bba-3d8795c79bd6}, !- Handle
  7,                                      !- Calculation Frequency
  15000;                                  !- Maximum Figures in Shadow Overlap Calculations

OS:SurfaceConvectionAlgorithm:Inside,
  {aaabfc36-718a-4ab0-b622-f186ebb45230}, !- Handle
  TARP;                                   !- Algorithm

OS:SurfaceConvectionAlgorithm:Outside,
  {9a0a9f6f-4bbd-4b12-a121-9492a1fcd7d6}, !- Handle
  DOE-2;                                  !- Algorithm

OS:HeatBalanceAlgorithm,
  {9d93e563-e1e0-46d7-9e39-d1c8aceb7212}, !- Handle
  ConductionTransferFunction,             !- Algorithm
  200;                                    !- Surface Temperature Upper Limit {F}

OS:ZoneAirHeatBalanceAlgorithm,
  {8520d93e-310f-4696-9bcd-36228bfdd743}, !- Handle
  AnalyticalSolution;                     !- Algorithm

OS:ZoneAirContaminantBalance,
  {eb5fc3ae-fb22-4160-8fcb-3e3b22b000d3}; !- Handle

OS:ZoneCapacitanceMultiplier:ResearchSpecial,
  {4020ce4f-5a7a-4849-8028-8305d7b751b1}, !- Handle
  ,                                       !- Temperature Capacity Multiplier
  ,                                       !- Humidity Capacity Multiplier
  ;                                       !- Carbon Dioxide Capacity Multiplier

OS:RunPeriod,
  {28df894d-6af9-4fb8-8f56-df1753344aa3}, !- Handle
  Run Period 1,                           !- Name
  1,                                      !- Begin Month
  1,                                      !- Begin Day of Month
  12,                                     !- End Month
  31,                                     !- End Day of Month
  ,                                       !- Use Weather File Holidays and Special Days
  ,                                       !- Use Weather File Daylight Saving Period
  ,                                       !- Apply Weekend Holiday Rule
  ,                                       !- Use Weather File Rain Indicators
  ,                                       !- Use Weather File Snow Indicators
  ;                                       !- Number of Times Runperiod to be Repeated

OS:Building,
  {bf305633-c5a1-4881-9edf-ca5e1a8e1274}, !- Handle
  Building 1,                             !- Name
  ,                                       !- Building Sector Type
  ,                                       !- North Axis {deg}
  ,                                       !- Nominal Floor to Floor Height {m}
  ,                                       !- Space Type Name
  ,                                       !- Default Construction Set Name
  {a6a30942-28a7-4737-b99e-cb43d7f561a3}, !- Default Schedule Set Name
  ,                                       !- Standards Number of Stories
  ,                                       !- Standards Number of Above Ground Stories
  SmallHotel;                             !- Standards Building Type

OS:LifeCycleCost:Parameters,
  {231cf8a0-f0e7-4251-a99f-11f0d464e661}, !- Handle
  FEMP,                                   !- Analysis Type
  ,                                       !- Discounting Convention
  ,                                       !- Inflation Approach
  ,                                       !- Real Discount Rate
  ,                                       !- Nominal Discount Rate
  ,                                       !- Inflation
  ,                                       !- Base Date Month
  ,                                       !- Base Date Year
  ,                                       !- Service Date Month
  ,                                       !- Service Date Year
  ,                                       !- Length of Study Period in Years
  ,                                       !- Tax Rate
  ,                                       !- Depreciation Method
  Yes;                                    !- Use NIST Fuel Escalation Rates

OS:Facility,
  {3ba8e45b-b833-44eb-a723-ea6c3946dc96}; !- Handle

OS:SpaceType,
  {2e10afce-fc29-4fa8-8777-a7918d61d593}, !- Handle
  SmallHotel|BlendGuest|DOE Ref Pre-1980|ASHRAE 169-2006-5A, !- Name
  {d25b74dd-0744-4717-b206-4f17704c57fe}, !- Default Construction Set Name
  ,                                       !- Default Schedule Set Name
  {0302c2a9-4546-4d1a-96b5-28896e9e5552}, !- Group Rendering Name
  {a13682a9-752f-489c-b7cb-b1e100157198}, !- Design Specification Outdoor Air Object Name
  SmallHotel,                             !- Standards Building Type
  BlendGuest;                             !- Standards Space Type

OS:Rendering:Color,
  {0302c2a9-4546-4d1a-96b5-28896e9e5552}, !- Handle
  Rendering Color 1,                      !- Name
  78,                                     !- Rendering Red Value
  167,                                    !- Rendering Green Value
  222;                                    !- Rendering Blue Value

OS:SpaceType,
  {db14b01f-aa9d-4ce6-b89d-83f0f5a3d0ee}, !- Handle
  SmallHotel|BlendMtg|DOE Ref Pre-1980|ASHRAE 169-2006-5A, !- Name
  {d25b74dd-0744-4717-b206-4f17704c57fe}, !- Default Construction Set Name
  ,                                       !- Default Schedule Set Name
  {a98f9c3c-1dbe-4b4e-b6e9-af6dec723d03}, !- Group Rendering Name
  {11ec7115-5a57-40ff-942f-145d5df1a9d7}, !- Design Specification Outdoor Air Object Name
  SmallHotel,                             !- Standards Building Type
  BlendMtg;                               !- Standards Space Type

OS:Rendering:Color,
  {a98f9c3c-1dbe-4b4e-b6e9-af6dec723d03}, !- Handle
  Rendering Color 2,                      !- Name
  120,                                    !- Rendering Red Value
  230,                                    !- Rendering Green Value
  199;                                    !- Rendering Blue Value

OS:SpaceType,
  {36049b4b-b774-4332-93dc-1b61403a5af6}, !- Handle
  SmallHotel|BlendMisc|DOE Ref Pre-1980|ASHRAE 169-2006-5A, !- Name
  {d25b74dd-0744-4717-b206-4f17704c57fe}, !- Default Construction Set Name
  ,                                       !- Default Schedule Set Name
  {5d8e0825-7876-43eb-a7d9-d72ea84befcd}, !- Group Rendering Name
  {de819312-72df-46f6-9d78-48aa0a645e44}, !- Design Specification Outdoor Air Object Name
  SmallHotel,                             !- Standards Building Type
  BlendMisc;                              !- Standards Space Type

OS:Rendering:Color,
  {5d8e0825-7876-43eb-a7d9-d72ea84befcd}, !- Handle
  Rendering Color 3,                      !- Name
  230,                                    !- Rendering Red Value
  157,                                    !- Rendering Green Value
  120;                                    !- Rendering Blue Value

OS:SpaceType,
  {22d8ecf7-2eaa-40b0-93f5-d0b20318b99b}, !- Handle
  SmallHotel|Laundry|DOE Ref Pre-1980|ASHRAE 169-2006-5A, !- Name
  {d25b74dd-0744-4717-b206-4f17704c57fe}, !- Default Construction Set Name
  {9a7cb457-0c8a-4c18-a60b-c615498b532a}, !- Default Schedule Set Name
  {7a9dced5-5dbf-46af-9b3b-1e795cd61763}, !- Group Rendering Name
  {e31c6452-f5e9-4546-aaf2-d57128c95cf5}, !- Design Specification Outdoor Air Object Name
  SmallHotel,                             !- Standards Building Type
  Laundry;                                !- Standards Space Type

OS:Rendering:Color,
  {7a9dced5-5dbf-46af-9b3b-1e795cd61763}, !- Handle
  Rendering Color 4,                      !- Name
  120,                                    !- Rendering Red Value
  149,                                    !- Rendering Green Value
  230;                                    !- Rendering Blue Value

OS:SpaceType,
  {94f1301a-be95-4049-ab90-02c9eb255e8f}, !- Handle
  SmallHotel|Exercise|DOE Ref Pre-1980|ASHRAE 169-2006-5A, !- Name
  {d25b74dd-0744-4717-b206-4f17704c57fe}, !- Default Construction Set Name
  {ace17efe-df0d-49e3-a678-b3ad6a5e0917}, !- Default Schedule Set Name
  {83d9c328-a08a-470a-b290-a2fd14acda2a}, !- Group Rendering Name
  {a8c511a6-49ce-4920-9060-6346cea1d5f8}, !- Design Specification Outdoor Air Object Name
  SmallHotel,                             !- Standards Building Type
  Exercise;                               !- Standards Space Type

OS:Rendering:Color,
  {83d9c328-a08a-470a-b290-a2fd14acda2a}, !- Handle
  Rendering Color 5,                      !- Name
  154,                                    !- Rendering Red Value
  230,                                    !- Rendering Green Value
  120;                                    !- Rendering Blue Value

OS:Schedule:Ruleset,
  {de50c4eb-659d-44e5-83b9-9cb6a93e3a74}, !- Handle
  0600|2200|SmallHotel|default|hoo,       !- Name
  {96accf6d-8344-41a5-b189-687107bf265e}, !- Schedule Type Limits Name
  {76d77063-45d0-4f94-9dc8-42b40fe8764b}, !- Default Day Schedule Name
  {c8e132f4-bd7d-4d15-bcd5-51fc4d0f9c99}, !- Summer Design Day Schedule Name
  {7d5ce511-2f22-4496-b153-d9ea335c3801}; !- Winter Design Day Schedule Name

OS:Schedule:Day,
  {76d77063-45d0-4f94-9dc8-42b40fe8764b}, !- Handle
  0600|2200|SmallHotel|default|hoo Schedule Week Day, !- Name
  {96accf6d-8344-41a5-b189-687107bf265e}, !- Schedule Type Limits Name
  ,                                       !- Interpolate to Timestep
  6,                                      !- Hour 1
  0,                                      !- Minute 1
  0,                                      !- Value Until Time 1
  22,                                     !- Hour 2
  0,                                      !- Minute 2
  1,                                      !- Value Until Time 2
  24,                                     !- Hour 3
  0,                                      !- Minute 3
  0;                                      !- Value Until Time 3

OS:Schedule:Day,
  {0fcd36e7-d568-4153-8ade-881dad66072f}, !- Handle
  Schedule Day 2,                         !- Name
  ,                                       !- Schedule Type Limits Name
  ,                                       !- Interpolate to Timestep
  24,                                     !- Hour 1
  0,                                      !- Minute 1
  0;                                      !- Value Until Time 1

OS:Schedule:Day,
  {7d5ce511-2f22-4496-b153-d9ea335c3801}, !- Handle
  0600|2200|SmallHotel|default|hoo Winter Design Day, !- Name
  {96accf6d-8344-41a5-b189-687107bf265e}, !- Schedule Type Limits Name
  ,                                       !- Interpolate to Timestep
  24,                                     !- Hour 1
  0,                                      !- Minute 1
  0;                                      !- Value Until Time 1

OS:Schedule:Day,
  {a26b8369-137a-4fb4-924d-547fa6f8dcb3}, !- Handle
  Schedule Day 3,                         !- Name
  ,                                       !- Schedule Type Limits Name
  ,                                       !- Interpolate to Timestep
  24,                                     !- Hour 1
  0,                                      !- Minute 1
  0;                                      !- Value Until Time 1

OS:Schedule:Day,
  {c8e132f4-bd7d-4d15-bcd5-51fc4d0f9c99}, !- Handle
  0600|2200|SmallHotel|default|hoo Summer Design Day, !- Name
  {96accf6d-8344-41a5-b189-687107bf265e}, !- Schedule Type Limits Name
  ,                                       !- Interpolate to Timestep
  24,                                     !- Hour 1
  0,                                      !- Minute 1
  1;                                      !- Value Until Time 1

OS:DefaultScheduleSet,
  {a6a30942-28a7-4737-b99e-cb43d7f561a3}, !- Handle
  Building Hours of Operation,            !- Name
  {de50c4eb-659d-44e5-83b9-9cb6a93e3a74}, !- Hours of Operation Schedule Name
  ,                                       !- Number of People Schedule Name
  ,                                       !- People Activity Level Schedule Name
  ,                                       !- Lighting Schedule Name
  ,                                       !- Electric Equipment Schedule Name
  ,                                       !- Gas Equipment Schedule Name
  ,                                       !- Hot Water Equipment Schedule Name
  ,                                       !- Infiltration Schedule Name
  ,                                       !- Steam Equipment Schedule Name
  ;                                       !- Other Equipment Schedule Name

OS:ScheduleTypeLimits,
  {96accf6d-8344-41a5-b189-687107bf265e}, !- Handle
  OnOff,                                  !- Name
  0,                                      !- Lower Limit Value {BasedOnField A4}
  1,                                      !- Upper Limit Value {BasedOnField A4}
  Discrete,                               !- Numeric Type
  Availability;                           !- Unit Type

OS:Schedule:Ruleset,
  {435752c8-951e-4c63-8f47-5749da3728af}, !- Handle
  0600|2200|SmallHotel|default|rh,        !- Name
  {da16644a-003a-4951-b7ae-b195efb6f32f}, !- Schedule Type Limits Name
  {e61f5cb5-15fd-4b4f-baf5-8f939a5b5123}, !- Default Day Schedule Name
  {cf5beefd-ce91-48bb-80e9-21b8ac33939a}, !- Summer Design Day Schedule Name
  {c401bd91-89ed-4a63-abff-41717eba9df6}; !- Winter Design Day Schedule Name

OS:ScheduleTypeLimits,
  {da16644a-003a-4951-b7ae-b195efb6f32f}, !- Handle
  Dimensionless Schedule Type Limits,     !- Name
  ,                                       !- Lower Limit Value {BasedOnField A4}
  ,                                       !- Upper Limit Value {BasedOnField A4}
  Continuous,                             !- Numeric Type
  Dimensionless;                          !- Unit Type

OS:Schedule:Day,
  {e61f5cb5-15fd-4b4f-baf5-8f939a5b5123}, !- Handle
  0600|2200|SmallHotel|default|rh |default, !- Name
  {da16644a-003a-4951-b7ae-b195efb6f32f}, !- Schedule Type Limits Name
  ,                                       !- Interpolate to Timestep
  24,                                     !- Hour 1
  0,                                      !- Minute 1
  50;                                     !- Value Until Time 1

OS:Schedule:Day,
  {cf5beefd-ce91-48bb-80e9-21b8ac33939a}, !- Handle
  0600|2200|SmallHotel|default|rh Summer Design Day, !- Name
  {da16644a-003a-4951-b7ae-b195efb6f32f}, !- Schedule Type Limits Name
  ,                                       !- Interpolate to Timestep
  24,                                     !- Hour 1
  0,                                      !- Minute 1
  50;                                     !- Value Until Time 1

OS:Schedule:Day,
  {c401bd91-89ed-4a63-abff-41717eba9df6}, !- Handle
  0600|2200|SmallHotel|default|rh Winter Design Day, !- Name
  {da16644a-003a-4951-b7ae-b195efb6f32f}, !- Schedule Type Limits Name
  ,                                       !- Interpolate to Timestep
  24,                                     !- Hour 1
  0,                                      !- Minute 1
  50;                                     !- Value Until Time 1

OS:Schedule:Ruleset,
  {bf196714-b854-4895-8452-692fecd590f1}, !- Handle
  0600|2200|SmallHotel|default|elevator,  !- Name
  {7e6f5688-d698-46c5-88b8-eacff6fd5a32}, !- Schedule Type Limits Name
  {780cc0a3-65c2-419b-9d2f-74b13908a2d4}, !- Default Day Schedule Name
  {df38e701-ba09-4b2b-af0a-6dee911f930f}, !- Summer Design Day Schedule Name
  {b9c24174-1dbd-49d6-9900-1c42f302b3ee}; !- Winter Design Day Schedule Name

OS:ScheduleTypeLimits,
  {7e6f5688-d698-46c5-88b8-eacff6fd5a32}, !- Handle
  Elevators Schedule Type Limits,         !- Name
  0,                                      !- Lower Limit Value {BasedOnField A4}
  1,                                      !- Upper Limit Value {BasedOnField A4}
  Continuous,                             !- Numeric Type
  Dimensionless;                          !- Unit Type

OS:Schedule:Day,
  {780cc0a3-65c2-419b-9d2f-74b13908a2d4}, !- Handle
  0600|2200|SmallHotel|default|elevator |default, !- Name
  {7e6f5688-d698-46c5-88b8-eacff6fd5a32}, !- Schedule Type Limits Name
  ,                                       !- Interpolate to Timestep
  4,                                      !- Hour 1
  0,                                      !- Minute 1
  0.05,                                   !- Value Until Time 1
  5,                                      !- Hour 2
  0,                                      !- Minute 2
  0.1,                                    !- Value Until Time 2
  6,                                      !- Hour 3
  0,                                      !- Minute 3
  0.2,                                    !- Value Until Time 3
  7,                                      !- Hour 4
  0,                                      !- Minute 4
  0.4,                                    !- Value Until Time 4
  9,                                      !- Hour 5
  0,                                      !- Minute 5
  0.5,                                    !- Value Until Time 5
  10,                                     !- Hour 6
  0,                                      !- Minute 6
  0.35,                                   !- Value Until Time 6
  16,                                     !- Hour 7
  0,                                      !- Minute 7
  0.15,                                   !- Value Until Time 7
  17,                                     !- Hour 8
  0,                                      !- Minute 8
  0.35,                                   !- Value Until Time 8
  19,                                     !- Hour 9
  0,                                      !- Minute 9
  0.5,                                    !- Value Until Time 9
  21,                                     !- Hour 10
  0,                                      !- Minute 10
  0.4,                                    !- Value Until Time 10
  22,                                     !- Hour 11
  0,                                      !- Minute 11
  0.3,                                    !- Value Until Time 11
  23,                                     !- Hour 12
  0,                                      !- Minute 12
  0.2,                                    !- Value Until Time 12
  24,                                     !- Hour 13
  0,                                      !- Minute 13
  0.1;                                    !- Value Until Time 13

OS:Schedule:Day,
  {df38e701-ba09-4b2b-af0a-6dee911f930f}, !- Handle
  0600|2200|SmallHotel|default|elevator Summer Design Day, !- Name
  {7e6f5688-d698-46c5-88b8-eacff6fd5a32}, !- Schedule Type Limits Name
  ,                                       !- Interpolate to Timestep
  4,                                      !- Hour 1
  0,                                      !- Minute 1
  0.05,                                   !- Value Until Time 1
  5,                                      !- Hour 2
  0,                                      !- Minute 2
  0.1,                                    !- Value Until Time 2
  6,                                      !- Hour 3
  0,                                      !- Minute 3
  0.2,                                    !- Value Until Time 3
  7,                                      !- Hour 4
  0,                                      !- Minute 4
  0.4,                                    !- Value Until Time 4
  9,                                      !- Hour 5
  0,                                      !- Minute 5
  0.5,                                    !- Value Until Time 5
  10,                                     !- Hour 6
  0,                                      !- Minute 6
  0.35,                                   !- Value Until Time 6
  16,                                     !- Hour 7
  0,                                      !- Minute 7
  0.15,                                   !- Value Until Time 7
  17,                                     !- Hour 8
  0,                                      !- Minute 8
  0.35,                                   !- Value Until Time 8
  19,                                     !- Hour 9
  0,                                      !- Minute 9
  0.5,                                    !- Value Until Time 9
  21,                                     !- Hour 10
  0,                                      !- Minute 10
  0.4,                                    !- Value Until Time 10
  22,                                     !- Hour 11
  0,                                      !- Minute 11
  0.3,                                    !- Value Until Time 11
  23,                                     !- Hour 12
  0,                                      !- Minute 12
  0.2,                                    !- Value Until Time 12
  24,                                     !- Hour 13
  0,                                      !- Minute 13
  0.1;                                    !- Value Until Time 13

OS:Schedule:Day,
  {b9c24174-1dbd-49d6-9900-1c42f302b3ee}, !- Handle
  0600|2200|SmallHotel|default|elevator Winter Design Day, !- Name
  {7e6f5688-d698-46c5-88b8-eacff6fd5a32}, !- Schedule Type Limits Name
  ,                                       !- Interpolate to Timestep
  4,                                      !- Hour 1
  0,                                      !- Minute 1
  0.05,                                   !- Value Until Time 1
  5,                                      !- Hour 2
  0,                                      !- Minute 2
  0.1,                                    !- Value Until Time 2
  6,                                      !- Hour 3
  0,                                      !- Minute 3
  0.2,                                    !- Value Until Time 3
  7,                                      !- Hour 4
  0,                                      !- Minute 4
  0.4,                                    !- Value Until Time 4
  9,                                      !- Hour 5
  0,                                      !- Minute 5
  0.5,                                    !- Value Until Time 5
  10,                                     !- Hour 6
  0,                                      !- Minute 6
  0.35,                                   !- Value Until Time 6
  16,                                     !- Hour 7
  0,                                      !- Minute 7
  0.15,                                   !- Value Until Time 7
  17,                                     !- Hour 8
  0,                                      !- Minute 8
  0.35,                                   !- Value Until Time 8
  19,                                     !- Hour 9
  0,                                      !- Minute 9
  0.5,                                    !- Value Until Time 9
  21,                                     !- Hour 10
  0,                                      !- Minute 10
  0.4,                                    !- Value Until Time 10
  22,                                     !- Hour 11
  0,                                      !- Minute 11
  0.3,                                    !- Value Until Time 11
  23,                                     !- Hour 12
  0,                                      !- Minute 12
  0.2,                                    !- Value Until Time 12
  24,                                     !- Hour 13
  0,                                      !- Minute 13
  0.1;                                    !- Value Until Time 13

OS:Schedule:Ruleset,
  {52cc7c7f-7484-49b8-a22d-ef05e6d29997}, !- Handle
  0600|2200|SmallHotel|Office|lighting,   !- Name
  {0217f13b-8445-4dd2-9681-8f6283d5b2cc}, !- Schedule Type Limits Name
  {949cedbb-c4d3-4bb4-9ccf-7cf0e748dee9}, !- Default Day Schedule Name
  {8e07499b-b225-4d2a-a1d6-e49b8f938c83}, !- Summer Design Day Schedule Name
  {ce49a055-c2d1-425a-b1d4-19b2c9d30d43}; !- Winter Design Day Schedule Name

OS:ScheduleTypeLimits,
  {0217f13b-8445-4dd2-9681-8f6283d5b2cc}, !- Handle
  Lights Schedule Type Limits,            !- Name
  0,                                      !- Lower Limit Value {BasedOnField A4}
  1,                                      !- Upper Limit Value {BasedOnField A4}
  Continuous,                             !- Numeric Type
  Dimensionless;                          !- Unit Type

OS:Schedule:Day,
  {949cedbb-c4d3-4bb4-9ccf-7cf0e748dee9}, !- Handle
  0600|2200|SmallHotel|Office|lighting |default, !- Name
  {0217f13b-8445-4dd2-9681-8f6283d5b2cc}, !- Schedule Type Limits Name
  ,                                       !- Interpolate to Timestep
  7,                                      !- Hour 1
  0,                                      !- Minute 1
  0.5,                                    !- Value Until Time 1
  8,                                      !- Hour 2
  0,                                      !- Minute 2
  0.61,                                   !- Value Until Time 2
  12,                                     !- Hour 3
  0,                                      !- Minute 3
  0.9,                                    !- Value Until Time 3
  13,                                     !- Hour 4
  0,                                      !- Minute 4
  0.8,                                    !- Value Until Time 4
  17,                                     !- Hour 5
  0,                                      !- Minute 5
  0.9,                                    !- Value Until Time 5
  18,                                     !- Hour 6
  0,                                      !- Minute 6
  0.61,                                   !- Value Until Time 6
  24,                                     !- Hour 7
  0,                                      !- Minute 7
  0.5;                                    !- Value Until Time 7

OS:Schedule:Day,
  {8e07499b-b225-4d2a-a1d6-e49b8f938c83}, !- Handle
  0600|2200|SmallHotel|Office|lighting Summer Design Day, !- Name
  {0217f13b-8445-4dd2-9681-8f6283d5b2cc}, !- Schedule Type Limits Name
  ,                                       !- Interpolate to Timestep
  24,                                     !- Hour 1
  0,                                      !- Minute 1
  1;                                      !- Value Until Time 1

OS:Schedule:Day,
  {ce49a055-c2d1-425a-b1d4-19b2c9d30d43}, !- Handle
  0600|2200|SmallHotel|Office|lighting Winter Design Day, !- Name
  {0217f13b-8445-4dd2-9681-8f6283d5b2cc}, !- Schedule Type Limits Name
  ,                                       !- Interpolate to Timestep
  24,                                     !- Hour 1
  0,                                      !- Minute 1
  0.5;                                    !- Value Until Time 1

OS:Schedule:Ruleset,
  {e0d537b8-62fa-4e50-b7fc-5d4e3caa0962}, !- Handle
  0600|2200|SmallHotel|default|air_velocity, !- Name
  {da16644a-003a-4951-b7ae-b195efb6f32f}, !- Schedule Type Limits Name
  {7e426c31-ac77-495e-a468-c352d8565d72}, !- Default Day Schedule Name
  {60e322d7-2043-4ae3-b6de-ba585108e656}, !- Summer Design Day Schedule Name