
OS:Version,
  {9f74497f-a6e1-4b68-94bc-1074464af66e}, !- Handle
  1.5.5;                                  !- Version Identifier

OS:ClimateZones,
  {135edfab-17e7-40db-a436-27d385a8cd6d}, !- Handle
  ,                                       !- Active Institution
  ,                                       !- Active Year
  ASHRAE,                                 !- Climate Zone Institution Name 1
  ANSI/ASHRAE Standard 169,               !- Climate Zone Document Name 1
  2006,                                   !- Climate Zone Document Year 1
  ,                                       !- Climate Zone Value 1
  CEC,                                    !- Climate Zone Institution Name 2
  California Climate Zone Descriptions,   !- Climate Zone Document Name 2
  1995,                                   !- Climate Zone Document Year 2
  ;                                       !- Climate Zone Value 2

OS:YearDescription,
  {513d8dda-86cb-442a-b01c-1f7f0e0ac70e}; !- Handle

OS:RadianceParameters,
  {270a96f1-3c86-4b75-a667-cdf22790e2c8}, !- Handle
  1,                                      !- Accumulated Rays per Record
  0,                                      !- Direct Threshold
  1,                                      !- Direct Certainty
  1,                                      !- Direct Jitter
  1,                                      !- Direct Pretest
  6,                                      !- Ambient Bounces VMX
  2,                                      !- Ambient Bounces DMX
  4050,                                   !- Ambient Divisions VMX
  512,                                    !- Ambient Divisions DMX
  256,                                    !- Ambient Supersamples
  0.001,                                  !- Limit Weight VMX
  0.001,                                  !- Limit Weight DMX
  500,                                    !- Klems Sampling Density
  146;                                    !- Sky Discretization Resolution

OS:SimulationControl,
  {2c487a4c-bac9-4ac5-b669-1e49d9da7c2b}, !- Handle
  ,                                       !- Do Zone Sizing Calculation
  ,                                       !- Do System Sizing Calculation
  ,                                       !- Do Plant Sizing Calculation
  No,                                     !- Run Simulation for Sizing Periods
  ,                                       !- Run Simulation for Weather File Run Periods
  0.04,                                   !- Loads Convergence Tolerance Value
  ,                                       !- Temperature Convergence Tolerance Value {deltaC}
  ,                                       !- Solar Distribution
  ,                                       !- Maximum Number of Warmup Days
  2;                                      !- Minimum Number of Warmup Days

OS:Sizing:Parameters,
  {dde5af6f-7923-4600-a28a-7556673a0266}, !- Handle
  1.25,                                   !- Heating Sizing Factor
  1.15;                                   !- Cooling Sizing Factor

OS:ProgramControl,
  {05027a99-f2b3-4aeb-afc6-1425fbb4371d}; !- Handle

OS:Timestep,
  {4ebc9f1e-4707-402e-9844-67eb1ffbd522}, !- Handle
  2;                                      !- Number of Timesteps per Hour

OS:OutputControl:ReportingTolerances,
  {65797aa2-06a9-45fe-b69d-bc6e060399d3}; !- Handle

OS:ConvergenceLimits,
  {9fc11aba-8822-4f3d-970c-46391ba4040d}; !- Handle

OS:ShadowCalculation,
  {ca758bea-4416-4626-9bba-3d8795c79bd6}, !- Handle
  7,                                      !- Calculation Frequency
  15000;                                  !- Maximum Figures in Shadow Overlap Calculations

OS:SurfaceConvectionAlgorithm:Inside,
  {aaabfc36-718a-4ab0-b622-f186ebb45230}, !- Handle
  TARP;                                   !- Algorithm

OS:SurfaceConvectionAlgorithm:Outside,
  {9a0a9f6f-4bbd-4b12-a121-9492a1fcd7d6}, !- Handle
  DOE-2;                                  !- Algorithm

OS:HeatBalanceAlgorithm,
  {9d93e563-e1e0-46d7-9e39-d1c8aceb7212}, !- Handle
  ConductionTransferFunction,             !- Algorithm
  200;                                    !- Surface Temperature Upper Limit {F}

OS:ZoneAirHeatBalanceAlgorithm,
  {8520d93e-310f-4696-9bcd-36228bfdd743}, !- Handle
  AnalyticalSolution;                     !- Algorithm

OS:ZoneAirContaminantBalance,
  {eb5fc3ae-fb22-4160-8fcb-3e3b22b000d3}; !- Handle

OS:ZoneCapacitanceMultiplier:ResearchSpecial,
  {4020ce4f-5a7a-4849-8028-8305d7b751b1}, !- Handle
  ,                                       !- Temperature Capacity Multiplier
  ,                                       !- Humidity Capacity Multiplier
  ;                                       !- Carbon Dioxide Capacity Multiplier

OS:RunPeriod,
  {28df894d-6af9-4fb8-8f56-df1753344aa3}, !- Handle
  Run Period 1,                           !- Name
  1,                                      !- Begin Month
  1,                                      !- Begin Day of Month
  12,                                     !- End Month
  31,                                     !- End Day of Month
  ,                                       !- Use Weather File Holidays and Special Days
  ,                                       !- Use Weather File Daylight Saving Period
  ,                                       !- Apply Weekend Holiday Rule
  ,                                       !- Use Weather File Rain Indicators
  ,                                       !- Use Weather File Snow Indicators
  ;                                       !- Number of Times Runperiod to be Repeated

OS:Building,
  {bf305633-c5a1-4881-9edf-ca5e1a8e1274}, !- Handle
  Building 1,                             !- Name
  ,                                       !- Building Sector Type
  ,                                       !- North Axis {deg}
  ,                                       !- Nominal Floor to Floor Height {m}
  ,                                       !- Space Type Name
  ,                                       !- Default Construction Set Name
  {a60b0783-e840-4f93-b833-382f90dd5cf3}, !- Default Schedule Set Name
  ,                                       !- Standards Number of Stories
  ,                                       !- Standards Number of Above Ground Stories
  SmallHotel;                             !- Standards Building Type

OS:LifeCycleCost:Parameters,
  {231cf8a0-f0e7-4251-a99f-11f0d464e661}, !- Handle
  FEMP,                                   !- Analysis Type
  ,                                       !- Discounting Convention
  ,                                       !- Inflation Approach
  ,                                       !- Real Discount Rate
  ,                                       !- Nominal Discount Rate
  ,                                       !- Inflation
  ,                                       !- Base Date Month
  ,                                       !- Base Date Year
  ,                                       !- Service Date Month
  ,                                       !- Service Date Year
  ,                                       !- Length of Study Period in Years
  ,                                       !- Tax Rate
  ,                                       !- Depreciation Method
  Yes;                                    !- Use NIST Fuel Escalation Rates

OS:Facility,
  {3ba8e45b-b833-44eb-a723-ea6c3946dc96}; !- Handle

OS:SpaceType,
  {bf2e7e87-7c70-4303-896c-35f646d1d582}, !- Handle
  SmallHotel|BlendGuest|DOE Ref 1980-2004|ASHRAE 169-2006-5A, !- Name
  {a1a584c5-a415-42fb-aaf2-8620af91266b}, !- Default Construction Set Name
  ,                                       !- Default Schedule Set Name
  {c66ffb43-f73c-4c4f-ad3b-75b9b9f8f67b}, !- Group Rendering Name
  {f0d073e7-6301-4762-ac4c-fed7c72acef3}, !- Design Specification Outdoor Air Object Name
  SmallHotel,                             !- Standards Building Type
  BlendGuest;                             !- Standards Space Type

OS:Rendering:Color,
  {c66ffb43-f73c-4c4f-ad3b-75b9b9f8f67b}, !- Handle
  Rendering Color 1,                      !- Name
  78,                                     !- Rendering Red Value
  167,                                    !- Rendering Green Value
  222;                                    !- Rendering Blue Value

OS:SpaceType,
  {a24cfbca-2ad5-4508-929a-b07d93577613}, !- Handle
  SmallHotel|BlendMtg|DOE Ref 1980-2004|ASHRAE 169-2006-5A, !- Name
  {a1a584c5-a415-42fb-aaf2-8620af91266b}, !- Default Construction Set Name
  ,                                       !- Default Schedule Set Name
  {0fdcc6c4-0a78-4978-9470-2eb96a7ca7e0}, !- Group Rendering Name
  {a21aecfa-67af-4a54-9a25-38047a1b38cf}, !- Design Specification Outdoor Air Object Name
  SmallHotel,                             !- Standards Building Type
  BlendMtg;                               !- Standards Space Type

OS:Rendering:Color,
  {0fdcc6c4-0a78-4978-9470-2eb96a7ca7e0}, !- Handle
  Rendering Color 2,                      !- Name
  120,                                    !- Rendering Red Value
  230,                                    !- Rendering Green Value
  199;                                    !- Rendering Blue Value

OS:SpaceType,
  {698a9c78-d04d-4e1a-be7c-f2430736e935}, !- Handle
  SmallHotel|BlendMisc|DOE Ref 1980-2004|ASHRAE 169-2006-5A, !- Name
  {a1a584c5-a415-42fb-aaf2-8620af91266b}, !- Default Construction Set Name
  ,                                       !- Default Schedule Set Name
  {e2c4b7ed-6cd6-44c6-b246-3b77f35f884c}, !- Group Rendering Name
  {5cbf0ff5-eb30-4e83-9afc-57a43d6e1cf1}, !- Design Specification Outdoor Air Object Name
  SmallHotel,                             !- Standards Building Type
  BlendMisc;                              !- Standards Space Type

OS:Rendering:Color,
  {e2c4b7ed-6cd6-44c6-b246-3b77f35f884c}, !- Handle
  Rendering Color 3,                      !- Name
  230,                                    !- Rendering Red Value
  157,                                    !- Rendering Green Value
  120;                                    !- Rendering Blue Value

OS:SpaceType,
  {e3b67ff2-d830-4d5a-9449-9e46f6105ed6}, !- Handle
  SmallHotel|Laundry|DOE Ref 1980-2004|ASHRAE 169-2006-5A, !- Name
  {a1a584c5-a415-42fb-aaf2-8620af91266b}, !- Default Construction Set Name
  {eef457c4-fff0-4116-99ed-41e8dda29394}, !- Default Schedule Set Name
  {f5a0ce3f-9327-44b3-be42-b035933c5c18}, !- Group Rendering Name
  {85ec9e57-c9ab-4f36-ac68-d02b2fbb4a5b}, !- Design Specification Outdoor Air Object Name
  SmallHotel,                             !- Standards Building Type
  Laundry;                                !- Standards Space Type

OS:Rendering:Color,
  {f5a0ce3f-9327-44b3-be42-b035933c5c18}, !- Handle
  Rendering Color 4,                      !- Name
  120,                                    !- Rendering Red Value
  149,                                    !- Rendering Green Value
  230;                                    !- Rendering Blue Value

OS:SpaceType,
  {565a35d1-f567-46e2-94cc-824d9de618c3}, !- Handle
  SmallHotel|Exercise|DOE Ref 1980-2004|ASHRAE 169-2006-5A, !- Name
  {a1a584c5-a415-42fb-aaf2-8620af91266b}, !- Default Construction Set Name
  {1ad4f8a3-b3ae-4029-9d4a-352c430f7d24}, !- Default Schedule Set Name
  {5d49366d-8bd1-424e-9e97-abead581790f}, !- Group Rendering Name
  {0e4d3dbd-a6f6-4b8b-8b0c-42a0b3153fb2}, !- Design Specification Outdoor Air Object Name
  SmallHotel,                             !- Standards Building Type
  Exercise;                               !- Standards Space Type

OS:Rendering:Color,
  {5d49366d-8bd1-424e-9e97-abead581790f}, !- Handle
  Rendering Color 5,                      !- Name
  154,                                    !- Rendering Red Value
  230,                                    !- Rendering Green Value
  120;                                    !- Rendering Blue Value

OS:Schedule:Ruleset,
  {2204a98d-c140-47c9-8f94-94bde703cdba}, !- Handle
  0600|2200|SmallHotel|default|hoo,       !- Name
  {809a0c1d-c56f-4042-87b5-cbbe29bbfa02}, !- Schedule Type Limits Name
  {e5090109-9abc-4984-ab81-53bbd61cc48f}, !- Default Day Schedule Name
  {25df9c76-b166-44c1-8e19-7e73603f1f99}, !- Summer Design Day Schedule Name
  {c63db303-eccd-4b31-b0e7-08df78226407}; !- Winter Design Day Schedule Name

OS:Schedule:Day,
  {e5090109-9abc-4984-ab81-53bbd61cc48f}, !- Handle
  0600|2200|SmallHotel|default|hoo Schedule Week Day, !- Name
  {809a0c1d-c56f-4042-87b5-cbbe29bbfa02}, !- Schedule Type Limits Name
  ,                                       !- Interpolate to Timestep
  6,                                      !- Hour 1
  0,                                      !- Minute 1
  0,                                      !- Value Until Time 1
  22,                                     !- Hour 2
  0,                                      !- Minute 2
  1,                                      !- Value Until Time 2
  24,                                     !- Hour 3
  0,                                      !- Minute 3
  0;                                      !- Value Until Time 3

OS:Schedule:Day,
  {bd27e405-e877-4a15-a7a5-fd62f5b2f8d0}, !- Handle
  Schedule Day 2,                         !- Name
  ,                                       !- Schedule Type Limits Name
  ,                                       !- Interpolate to Timestep
  24,                                     !- Hour 1
  0,                                      !- Minute 1
  0;                                      !- Value Until Time 1

OS:Schedule:Day,
  {c63db303-eccd-4b31-b0e7-08df78226407}, !- Handle
  0600|2200|SmallHotel|default|hoo Winter Design Day, !- Name
  {809a0c1d-c56f-4042-87b5-cbbe29bbfa02}, !- Schedule Type Limits Name
  ,                                       !- Interpolate to Timestep
  24,                                     !- Hour 1
  0,                                      !- Minute 1
  0;                                      !- Value Until Time 1

OS:Schedule:Day,
  {8f568419-2009-46b8-bf66-0da27baf38b9}, !- Handle
  Schedule Day 3,                         !- Name
  ,                                       !- Schedule Type Limits Name
  ,                                       !- Interpolate to Timestep
  24,                                     !- Hour 1
  0,                                      !- Minute 1
  0;                                      !- Value Until Time 1

OS:Schedule:Day,
  {25df9c76-b166-44c1-8e19-7e73603f1f99}, !- Handle
  0600|2200|SmallHotel|default|hoo Summer Design Day, !- Name
  {809a0c1d-c56f-4042-87b5-cbbe29bbfa02}, !- Schedule Type Limits Name
  ,                                       !- Interpolate to Timestep
  24,                                     !- Hour 1
  0,                                      !- Minute 1
  1;                                      !- Value Until Time 1

OS:DefaultScheduleSet,
  {a60b0783-e840-4f93-b833-382f90dd5cf3}, !- Handle
  Building Hours of Operation,            !- Name
  {2204a98d-c140-47c9-8f94-94bde703cdba}, !- Hours of Operation Schedule Name
  ,                                       !- Number of People Schedule Name
  ,                                       !- People Activity Level Schedule Name
  ,                                       !- Lighting Schedule Name
  ,                                       !- Electric Equipment Schedule Name
  ,                                       !- Gas Equipment Schedule Name
  ,                                       !- Hot Water Equipment Schedule Name
  ,                                       !- Infiltration Schedule Name
  ,                                       !- Steam Equipment Schedule Name
  ;                                       !- Other Equipment Schedule Name

OS:ScheduleTypeLimits,
  {809a0c1d-c56f-4042-87b5-cbbe29bbfa02}, !- Handle
  OnOff,                                  !- Name
  0,                                      !- Lower Limit Value {BasedOnField A4}
  1,                                      !- Upper Limit Value {BasedOnField A4}
  Discrete,                               !- Numeric Type
  Availability;                           !- Unit Type

OS:Schedule:Ruleset,
  {cc1c15c5-0c65-44e9-ba1f-3834c1efd7fc}, !- Handle
  0600|2200|SmallHotel|Storage|lighting,  !- Name
  {6e8a9a5b-4160-4e4f-b3ab-fca9bb53ce47}, !- Schedule Type Limits Name
  {39c5a36f-4bb9-40ef-9d44-c5a5efda38a0}, !- Default Day Schedule Name
  {b3b6d76a-dd59-400f-a24c-c16468c3a6be}, !- Summer Design Day Schedule Name
  {16fbf6ef-9719-4366-971c-f77b5b02706a}; !- Winter Design Day Schedule Name

OS:ScheduleTypeLimits,
  {6e8a9a5b-4160-4e4f-b3ab-fca9bb53ce47}, !- Handle
  Lights Schedule Type Limits,            !- Name
  0,                                      !- Lower Limit Value {BasedOnField A4}
  1,                                      !- Upper Limit Value {BasedOnField A4}
  Continuous,                             !- Numeric Type
  Dimensionless;                          !- Unit Type

OS:Schedule:Day,
  {39c5a36f-4bb9-40ef-9d44-c5a5efda38a0}, !- Handle
  0600|2200|SmallHotel|Storage|lighting |default, !- Name
  {6e8a9a5b-4160-4e4f-b3ab-fca9bb53ce47}, !- Schedule Type Limits Name
  ,                                       !- Interpolate to Timestep
  7,                                      !- Hour 1
  0,                                      !- Minute 1
  0.1,                                    !- Value Until Time 1
  8,                                      !- Hour 2
  0,                                      !- Minute 2
  0.2,                                    !- Value Until Time 2
  18,                                     !- Hour 3
  0,                                      !- Minute 3
  0.4,                                    !- Value Until Time 3
  22,                                     !- Hour 4
  0,                                      !- Minute 4
  0.2,                                    !- Value Until Time 4
  24,                                     !- Hour 5
  0,                                      !- Minute 5
  0.1;                                    !- Value Until Time 5

OS:Schedule:Day,
  {b3b6d76a-dd59-400f-a24c-c16468c3a6be}, !- Handle
  0600|2200|SmallHotel|Storage|lighting Summer Design Day, !- Name
  {6e8a9a5b-4160-4e4f-b3ab-fca9bb53ce47}, !- Schedule Type Limits Name
  ,                                       !- Interpolate to Timestep
  7,                                      !- Hour 1
  0,                                      !- Minute 1
  0.1,                                    !- Value Until Time 1
  8,                                      !- Hour 2
  0,                                      !- Minute 2
  0.2,                                    !- Value Until Time 2
  18,                                     !- Hour 3
  0,                                      !- Minute 3
  1,                                      !- Value Until Time 3
  22,                                     !- Hour 4
  0,                                      !- Minute 4
  0.2,                                    !- Value Until Time 4
  24,                                     !- Hour 5
  0,                                      !- Minute 5
  0.1;                                    !- Value Until Time 5

OS:Schedule:Day,
  {16fbf6ef-9719-4366-971c-f77b5b02706a}, !- Handle
  0600|2200|SmallHotel|Storage|lighting Winter Design Day, !- Name
  {6e8a9a5b-4160-4e4f-b3ab-fca9bb53ce47}, !- Schedule Type Limits Name
  ,                                       !- Interpolate to Timestep
  24,                                     !- Hour 1
  0,                                      !- Minute 1
  0.1;                                    !- Value Until Time 1

OS:Schedule:Ruleset,
  {2af44e86-85f9-4d66-8754-6a3701320894}, !- Handle
  0600|2200|SmallHotel|Laundry|elec_equip, !- Name
  {0dad33e8-7046-482f-9681-22cf740e0a3d}, !- Schedule Type Limits Name
  {c3e76d16-b892-4b9f-8ec3-3c74e3d7ba28}, !- Default Day Schedule Name
  {74248467-09a4-47cb-ad3a-da3e54a2a367}, !- Summer Design Day Schedule Name
  {f8d753ba-793e-47c8-9c39-e2e242fc61bd}; !- Winter Design Day Schedule Name

OS:ScheduleTypeLimits,
  {0dad33e8-7046-482f-9681-22cf740e0a3d}, !- Handle
  Equipment Schedule Type Limits,         !- Name
  0,                                      !- Lower Limit Value {BasedOnField A4}
  1,                                      !- Upper Limit Value {BasedOnField A4}
  Continuous,                             !- Numeric Type
  Dimensionless;                          !- Unit Type

OS:Schedule:Day,
  {c3e76d16-b892-4b9f-8ec3-3c74e3d7ba28}, !- Handle
  0600|2200|SmallHotel|Laundry|elec_equip |default, !- Name
  {0dad33e8-7046-482f-9681-22cf740e0a3d}, !- Schedule Type Limits Name
  ,                                       !- Interpolate to Timestep
  8,                                      !- Hour 1
  0,                                      !- Minute 1
  0,                                      !- Value Until Time 1
  16,                                     !- Hour 2
  0,                                      !- Minute 2
  1,                                      !- Value Until Time 2
  24,                                     !- Hour 3
  0,                                      !- Minute 3
  0;                                      !- Value Until Time 3

OS:Schedule:Day,
  {74248467-09a4-47cb-ad3a-da3e54a2a367}, !- Handle
  0600|2200|SmallHotel|Laundry|elec_equip Summer Design Day, !- Name
  {0dad33e8-7046-482f-9681-22cf740e0a3d}, !- Schedule Type Limits Name
  ,                                       !- Interpolate to Timestep
  8,                                      !- Hour 1
  0,                                      !- Minute 1
  0,                                      !- Value Until Time 1
  16,                                     !- Hour 2
  0,                                      !- Minute 2
  1,                                      !- Value Until Time 2
  24,                                     !- Hour 3
  0,                                      !- Minute 3
  0;                                      !- Value Until Time 3

OS:Schedule:Day,
  {f8d753ba-793e-47c8-9c39-e2e242fc61bd}, !- Handle
  0600|2200|SmallHotel|Laundry|elec_equip Winter Design Day, !- Name
  {0dad33e8-7046-482f-9681-22cf740e0a3d}, !- Schedule Type Limits Name
  ,                                       !- Interpolate to Timestep
  24,                                     !- Hour 1
  0,                                      !- Minute 1
  0;                                      !- Value Until Time 1

OS:Schedule:Ruleset,
  {77fe52d7-986b-4548-88ca-69e0a59d9c1d}, !- Handle
  0600|2200|SmallHotel|Office|occ,        !- Name
  {18b02ce8-4fd0-4cf6-9e9a-1e92be0ac2d9}, !- Schedule Type Limits Name
  {9405725c-afb3-4445-8d1b-0f83c27d9b06}, !- Default Day Schedule Name
  {6fd91066-8ea7-40ac-ad81-9eec13429c15}, !- Summer Design Day Schedule Name
  {cacf7963-0ca0-4bdf-8e3c-b3a151db069a}; !- Winter Design Day Schedule Name

OS:ScheduleTypeLimits,
  {18b02ce8-4fd0-4cf6-9e9a-1e92be0ac2d9}, !- Handle
  Occupancy Schedule Type Limits,         !- Name
  0,                                      !- Lower Limit Value {BasedOnField A4}
  1,                                      !- Upper Limit Value {BasedOnField A4}
  Continuous,                             !- Numeric Type
  Dimensionless;                          !- Unit Type

OS:Schedule:Day,
  {9405725c-afb3-4445-8d1b-0f83c27d9b06}, !- Handle
  0600|2200|SmallHotel|Office|occ |default, !- Name
  {18b02ce8-4fd0-4cf6-9e9a-1e92be0ac2d9}, !- Schedule Type Limits Name
  ,                                       !- Interpolate to Timestep
  6,                                      !- Hour 1
  0,                                      !- Minute 1
  0.2,                                    !- Value Until Time 1
  7,                                      !- Hour 2
  0,                                      !- Minute 2
  0.3,                                    !- Value Until Time 2
  8,                                      !- Hour 3
  0,                                      !- Minute 3
  0.4,                                    !- Value Until Time 3
  12,                                     !- Hour 4
  0,                                      !- Minute 4
  1,                                      !- Value Until Time 4
  13,                                     !- Hour 5
  0,                                      !- Minute 5
  0.5,                                    !- Value Until Time 5
  17,                                     !- Hour 6
  0,                                      !- Minute 6
  1,                                      !- Value Until Time 6
  18,                                     !- Hour 7
  0,                                      !- Minute 7
  0.4,                                    !- Value Until Time 7
  19,                                     !- Hour 8
  0,                                      !- Minute 8
  0.3,                                    !- Value Until Time 8
  24,                                     !- Hour 9
  0,                                      !- Minute 9
  0.2;                                    !- Value Until Time 9

OS:Schedule:Day,
  {6fd91066-8ea7-40ac-ad81-9eec13429c15}, !- Handle
  0600|2200|SmallHotel|Office|occ Summer Design Day, !- Name
  {18b02ce8-4fd0-4cf6-9e9a-1e92be0ac2d9}, !- Schedule Type Limits Name
  ,                                       !- Interpolate to Timestep
  6,                                      !- Hour 1
  0,                                      !- Minute 1
  0.2,                                    !- Value Until Time 1
  19,                                     !- Hour 2
  0,                                      !- Minute 2
  1,                                      !- Value Until Time 2
  24,                                     !- Hour 3
  0,                                      !- Minute 3
  0.2;                                    !- Value Until Time 3

OS:Schedule:Day,
  {cacf7963-0ca0-4bdf-8e3c-b3a151db069a}, !- Handle
  0600|2200|SmallHotel|Office|occ Winter Design Day, !- Name
  {18b02ce8-4fd0-4cf6-9e9a-1e92be0ac2d9}, !- Schedule Type Limits Name
  ,                                       !- Interpolate to Timestep
  24,                                     !- Hour 1
  0,                                      !- Minute 1
  0;                                      !- Value Until Time 1

OS:Schedule:Rule,
  {20680d34-d78f-428d-859f-6d87358459cf}, !- Handle
  0600|2200|SmallHotel|Office|occ |1/1-12/31|Sat/Sun Rule, !- Name
  {77fe52d7-986b-4548-88ca-69e0a59d9c1d}, !- Schedule Ruleset Name
  0,                                      !- Rule Order
  {9d3c08f1-cdaf-4d8c-bd5d-1814d491fdf8}, !- Day Schedule Name
  Yes,                                    !- Apply Sunday
  ,                                       !- Apply Monday
  ,                                       !- Apply Tuesday
  ,                                       !- Apply Wednesday
  ,                                       !- Apply Thursday
  ,                                       !- Apply Friday
  Yes,                                    !- Apply Saturday
  ,                                       !- Apply Holiday
  DateRange,                              !- Date Specification Type
  1,                                      !- Start Month
  1,                                      !- Start Day
  12,                                     !- End Month
  31;                                     !- End Day

OS:Schedule:Day,
  {9d3c08f1-cdaf-4d8c-bd5d-1814d491fdf8}, !- Handle
  0600|2200|SmallHotel|Office|occ |1/1-12/31|Sat/Sun, !- Name
  {18b02ce8-4fd0-4cf6-9e9a-1e92be0ac2d9}, !- Schedule Type Limits Name
  ,                                       !- Interpolate to Timestep
  7,                                      !- Hour 1
  0,                                      !- Minute 1
  0.2,                                    !- Value Until Time 1
  8,                                      !- Hour 2
  0,                                      !- Minute 2
  0.3,                                    !- Value Until Time 2
  17,                                     !- Hour 3
  0,                                      !- Minute 3
  0.5,                                    !- Value Until Time 3
  18,                                     !- Hour 4
  0,                                      !- Minute 4
  0.3,                                    !- Value Until Time 4
  24,                                     !- Hour 5
  0,                                      !- Minute 5
  0.2;                                    !- Value Until Time 5

OS:Schedule:Ruleset,
  {65a39933-18cc-4094-b5c5-7013ede9daa9}, !- Handle
  0600|2200|SmallHotel|default|hvac,      !- Name
  {b14fb9e3-c3cd-40c8-b307-c3c1833ab19b}, !- Schedule Type Limits Name
  {fafa79bf-62ba-46a2-a8ae-09c6ef8ccfd2}, !- Default Day Schedule Name
  {20cb5a9d-8657-43f1-b5ca-287e8ebc712a}, !- Summer Design Day Schedule Name
  {27a663cb-806e-402d-84c8-45f3d1108992}; !- Winter Design Day Schedule Name

OS:ScheduleTypeLimits,
  {b14fb9e3-c3cd-40c8-b307-c3c1833ab19b}, !- Handle
  HVAC Operation Schedule Type Limits,    !- Name
  0,                                      !- Lower Limit Value {BasedOnField A4}
  1,                                      !- Upper Limit Value {BasedOnField A4}
  Discrete,                               !- Numeric Type
  Availability;                           !- Unit Type

OS:Schedule:Day,
  {fafa79bf-62ba-46a2-a8ae-09c6ef8ccfd2}, !- Handle
  0600|2200|SmallHotel|default|hvac |default, !- Name
  {b14fb9e3-c3cd-40c8-b307-c3c1833ab19b}, !- Schedule Type Limits Name
  ,                                       !- Interpolate to Timestep
  24,                                     !- Hour 1
  0,                                      !- Minute 1
  1;                                      !- Value Until Time 1

OS:Schedule:Day,
  {20cb5a9d-8657-43f1-b5ca-287e8ebc712a}, !- Handle
  0600|2200|SmallHotel|default|hvac Summer Design Day, !- Name
  {b14fb9e3-c3cd-40c8-b307-c3c1833ab19b}, !- Schedule Type Limits Name
  ,                                       !- Interpolate to Timestep