
OS:Version,
  {5851a27e-d83e-4b6d-9f05-de31ae85154c}, !- Handle
  1.5.5;                                  !- Version Identifier

OS:ClimateZones,
  {135edfab-17e7-40db-a436-27d385a8cd6d}, !- Handle
  ,                                       !- Active Institution
  ,                                       !- Active Year
  ASHRAE,                                 !- Climate Zone Institution Name 1
  ANSI/ASHRAE Standard 169,               !- Climate Zone Document Name 1
  2006,                                   !- Climate Zone Document Year 1
  ,                                       !- Climate Zone Value 1
  CEC,                                    !- Climate Zone Institution Name 2
  California Climate Zone Descriptions,   !- Climate Zone Document Name 2
  1995,                                   !- Climate Zone Document Year 2
  ;                                       !- Climate Zone Value 2

OS:YearDescription,
  {513d8dda-86cb-442a-b01c-1f7f0e0ac70e}; !- Handle

OS:RadianceParameters,
  {270a96f1-3c86-4b75-a667-cdf22790e2c8}, !- Handle
  1,                                      !- Accumulated Rays per Record
  0,                                      !- Direct Threshold
  1,                                      !- Direct Certainty
  1,                                      !- Direct Jitter
  1,                                      !- Direct Pretest
  6,                                      !- Ambient Bounces VMX
  2,                                      !- Ambient Bounces DMX
  4050,                                   !- Ambient Divisions VMX
  512,                                    !- Ambient Divisions DMX
  256,                                    !- Ambient Supersamples
  0.001,                                  !- Limit Weight VMX
  0.001,                                  !- Limit Weight DMX
  500,                                    !- Klems Sampling Density
  146;                                    !- Sky Discretization Resolution

OS:SimulationControl,
  {2c487a4c-bac9-4ac5-b669-1e49d9da7c2b}, !- Handle
  ,                                       !- Do Zone Sizing Calculation
  ,                                       !- Do System Sizing Calculation
  ,                                       !- Do Plant Sizing Calculation
  No,                                     !- Run Simulation for Sizing Periods
  ,                                       !- Run Simulation for Weather File Run Periods
  0.04,                                   !- Loads Convergence Tolerance Value
  ,                                       !- Temperature Convergence Tolerance Value {deltaC}
  ,                                       !- Solar Distribution
  ,                                       !- Maximum Number of Warmup Days
  2;                                      !- Minimum Number of Warmup Days

OS:Sizing:Parameters,
  {dde5af6f-7923-4600-a28a-7556673a0266}, !- Handle
  1.25,                                   !- Heating Sizing Factor
  1.15;                                   !- Cooling Sizing Factor

OS:ProgramControl,
  {05027a99-f2b3-4aeb-afc6-1425fbb4371d}; !- Handle

OS:Timestep,
  {4ebc9f1e-4707-402e-9844-67eb1ffbd522}, !- Handle
  2;                                      !- Number of Timesteps per Hour

OS:OutputControl:ReportingTolerances,
  {65797aa2-06a9-45fe-b69d-bc6e060399d3}; !- Handle

OS:ConvergenceLimits,
  {9fc11aba-8822-4f3d-970c-46391ba4040d}; !- Handle

OS:ShadowCalculation,
  {ca758bea-4416-4626-9bba-3d8795c79bd6}, !- Handle
  7,                                      !- Calculation Frequency
  15000;                                  !- Maximum Figures in Shadow Overlap Calculations

OS:SurfaceConvectionAlgorithm:Inside,
  {aaabfc36-718a-4ab0-b622-f186ebb45230}, !- Handle
  TARP;                                   !- Algorithm

OS:SurfaceConvectionAlgorithm:Outside,
  {9a0a9f6f-4bbd-4b12-a121-9492a1fcd7d6}, !- Handle
  DOE-2;                                  !- Algorithm

OS:HeatBalanceAlgorithm,
  {9d93e563-e1e0-46d7-9e39-d1c8aceb7212}, !- Handle
  ConductionTransferFunction,             !- Algorithm
  200;                                    !- Surface Temperature Upper Limit {F}

OS:ZoneAirHeatBalanceAlgorithm,
  {8520d93e-310f-4696-9bcd-36228bfdd743}, !- Handle
  AnalyticalSolution;                     !- Algorithm

OS:ZoneAirContaminantBalance,
  {eb5fc3ae-fb22-4160-8fcb-3e3b22b000d3}; !- Handle

OS:ZoneCapacitanceMultiplier:ResearchSpecial,
  {4020ce4f-5a7a-4849-8028-8305d7b751b1}, !- Handle
  ,                                       !- Temperature Capacity Multiplier
  ,                                       !- Humidity Capacity Multiplier
  ;                                       !- Carbon Dioxide Capacity Multiplier

OS:RunPeriod,
  {28df894d-6af9-4fb8-8f56-df1753344aa3}, !- Handle
  Run Period 1,                           !- Name
  1,                                      !- Begin Month
  1,                                      !- Begin Day of Month
  12,                                     !- End Month
  31,                                     !- End Day of Month
  ,                                       !- Use Weather File Holidays and Special Days
  ,                                       !- Use Weather File Daylight Saving Period
  ,                                       !- Apply Weekend Holiday Rule
  ,                                       !- Use Weather File Rain Indicators
  ,                                       !- Use Weather File Snow Indicators
  ;                                       !- Number of Times Runperiod to be Repeated

OS:Building,
  {bf305633-c5a1-4881-9edf-ca5e1a8e1274}, !- Handle
  Building 1,                             !- Name
  ,                                       !- Building Sector Type
  ,                                       !- North Axis {deg}
  ,                                       !- Nominal Floor to Floor Height {m}
  ,                                       !- Space Type Name
  ,                                       !- Default Construction Set Name
  {9bccc472-1bfb-4d35-9982-3c3efe5f4016}, !- Default Schedule Set Name
  ,                                       !- Standards Number of Stories
  ,                                       !- Standards Number of Above Ground Stories
  StripMall;                              !- Standards Building Type

OS:LifeCycleCost:Parameters,
  {231cf8a0-f0e7-4251-a99f-11f0d464e661}, !- Handle
  FEMP,                                   !- Analysis Type
  ,                                       !- Discounting Convention
  ,                                       !- Inflation Approach
  ,                                       !- Real Discount Rate
  ,                                       !- Nominal Discount Rate
  ,                                       !- Inflation
  ,                                       !- Base Date Month
  ,                                       !- Base Date Year
  ,                                       !- Service Date Month
  ,                                       !- Service Date Year
  ,                                       !- Length of Study Period in Years
  ,                                       !- Tax Rate
  ,                                       !- Depreciation Method
  Yes;                                    !- Use NIST Fuel Escalation Rates

OS:Facility,
  {3ba8e45b-b833-44eb-a723-ea6c3946dc96}; !- Handle

OS:SpaceType,
  {2b529810-3e49-4a8c-a106-824b7a76a6a2}, !- Handle
  StripMall|WholeBuilding|DOE Ref 1980-2004|ASHRAE 169-2006-5A, !- Name
  {8eec75fa-3253-490c-9d19-5261fbb2fcfe}, !- Default Construction Set Name
  {c136d8a7-fe4b-46ea-b78c-15bd0662e296}, !- Default Schedule Set Name
  {4d33546e-0711-4a81-bb70-3f6fc0f80a4e}, !- Group Rendering Name
  {6d137cb7-a6bc-48a6-b992-42d5be8412a5}, !- Design Specification Outdoor Air Object Name
  StripMall,                              !- Standards Building Type
  WholeBuilding;                          !- Standards Space Type

OS:Rendering:Color,
  {4d33546e-0711-4a81-bb70-3f6fc0f80a4e}, !- Handle
  Rendering Color 1,                      !- Name
  171,                                    !- Rendering Red Value
  222,                                    !- Rendering Green Value
  78;                                     !- Rendering Blue Value

OS:Schedule:Ruleset,
  {681bfd09-d6f0-4b4c-9e9f-13d88de7b1b4}, !- Handle
  0700|2100|StripMall|default|hoo,        !- Name
  {f3e326b0-1278-44cb-9eb9-a7145c0cb73c}, !- Schedule Type Limits Name
  {9c46a9bd-a1ed-4e5f-906a-39f9978ee4d4}, !- Default Day Schedule Name
  {b927009a-6d6b-471b-8c56-7cc5f6dbc5fa}, !- Summer Design Day Schedule Name
  {eec631ba-6d8e-472f-8083-4ddb23f1ce25}; !- Winter Design Day Schedule Name

OS:Schedule:Day,
  {9c46a9bd-a1ed-4e5f-906a-39f9978ee4d4}, !- Handle
  0700|2100|StripMall|default|hoo Schedule Week Day, !- Name
  {f3e326b0-1278-44cb-9eb9-a7145c0cb73c}, !- Schedule Type Limits Name
  ,                                       !- Interpolate to Timestep
  7,                                      !- Hour 1
  0,                                      !- Minute 1
  0,                                      !- Value Until Time 1
  21,                                     !- Hour 2
  0,                                      !- Minute 2
  1,                                      !- Value Until Time 2
  24,                                     !- Hour 3
  0,                                      !- Minute 3
  0;                                      !- Value Until Time 3

OS:Schedule:Day,
  {022ad78e-8492-4daf-9fc3-063d47915686}, !- Handle
  Schedule Day 2,                         !- Name
  ,                                       !- Schedule Type Limits Name
  ,                                       !- Interpolate to Timestep
  24,                                     !- Hour 1
  0,                                      !- Minute 1
  0;                                      !- Value Until Time 1

OS:Schedule:Day,
  {eec631ba-6d8e-472f-8083-4ddb23f1ce25}, !- Handle
  0700|2100|StripMall|default|hoo Winter Design Day, !- Name
  {f3e326b0-1278-44cb-9eb9-a7145c0cb73c}, !- Schedule Type Limits Name
  ,                                       !- Interpolate to Timestep
  24,                                     !- Hour 1
  0,                                      !- Minute 1
  0;                                      !- Value Until Time 1

OS:Schedule:Day,
  {8ac46e87-7142-4eb4-a48c-cc1f670ebde8}, !- Handle
  Schedule Day 3,                         !- Name
  ,                                       !- Schedule Type Limits Name
  ,                                       !- Interpolate to Timestep
  24,                                     !- Hour 1
  0,                                      !- Minute 1
  0;                                      !- Value Until Time 1

OS:Schedule:Day,
  {b927009a-6d6b-471b-8c56-7cc5f6dbc5fa}, !- Handle
  0700|2100|StripMall|default|hoo Summer Design Day, !- Name
  {f3e326b0-1278-44cb-9eb9-a7145c0cb73c}, !- Schedule Type Limits Name
  ,                                       !- Interpolate to Timestep
  24,                                     !- Hour 1
  0,                                      !- Minute 1
  1;                                      !- Value Until Time 1

OS:DefaultScheduleSet,
  {9bccc472-1bfb-4d35-9982-3c3efe5f4016}, !- Handle
  Building Hours of Operation,            !- Name
  {681bfd09-d6f0-4b4c-9e9f-13d88de7b1b4}, !- Hours of Operation Schedule Name
  ,                                       !- Number of People Schedule Name
  ,                                       !- People Activity Level Schedule Name
  ,                                       !- Lighting Schedule Name
  ,                                       !- Electric Equipment Schedule Name
  ,                                       !- Gas Equipment Schedule Name
  ,                                       !- Hot Water Equipment Schedule Name
  ,                                       !- Infiltration Schedule Name
  ,                                       !- Steam Equipment Schedule Name
  ;                                       !- Other Equipment Schedule Name

OS:ScheduleTypeLimits,
  {f3e326b0-1278-44cb-9eb9-a7145c0cb73c}, !- Handle
  OnOff,                                  !- Name
  0,                                      !- Lower Limit Value {BasedOnField A4}
  1,                                      !- Upper Limit Value {BasedOnField A4}
  Discrete,                               !- Numeric Type
  Availability;                           !- Unit Type

OS:Schedule:Ruleset,
  {13ab0567-0a3f-4eb2-9339-a305ee960e3e}, !- Handle
  0700|2100|StripMall|default|thermal_ctrl, !- Name
  {b0dd55f3-b0f1-4eef-80c3-e7ae17d5fc86}, !- Schedule Type Limits Name
  {cddf808b-d131-4440-87d8-1b3a1ab0707a}, !- Default Day Schedule Name
  {157730d2-4de5-4764-acd4-bf9ef8be7916}, !- Summer Design Day Schedule Name
  {2dc782ac-4b79-45fe-a307-d2ef20b7e834}; !- Winter Design Day Schedule Name

OS:ScheduleTypeLimits,
  {b0dd55f3-b0f1-4eef-80c3-e7ae17d5fc86}, !- Handle
  Dimensionless Schedule Type Limits,     !- Name
  ,                                       !- Lower Limit Value {BasedOnField A4}
  ,                                       !- Upper Limit Value {BasedOnField A4}
  Continuous,                             !- Numeric Type
  Dimensionless;                          !- Unit Type

OS:Schedule:Day,
  {cddf808b-d131-4440-87d8-1b3a1ab0707a}, !- Handle
  0700|2100|StripMall|default|thermal_ctrl |default, !- Name
  {b0dd55f3-b0f1-4eef-80c3-e7ae17d5fc86}, !- Schedule Type Limits Name
  ,                                       !- Interpolate to Timestep
  24,                                     !- Hour 1
  0,                                      !- Minute 1
  4;                                      !- Value Until Time 1

OS:Schedule:Day,
  {157730d2-4de5-4764-acd4-bf9ef8be7916}, !- Handle
  0700|2100|StripMall|default|thermal_ctrl Summer Design Day, !- Name
  {b0dd55f3-b0f1-4eef-80c3-e7ae17d5fc86}, !- Schedule Type Limits Name
  ,                                       !- Interpolate to Timestep
  24,                                     !- Hour 1
  0,                                      !- Minute 1
  4;                                      !- Value Until Time 1

OS:Schedule:Day,
  {2dc782ac-4b79-45fe-a307-d2ef20b7e834}, !- Handle
  0700|2100|StripMall|default|thermal_ctrl Winter Design Day, !- Name
  {b0dd55f3-b0f1-4eef-80c3-e7ae17d5fc86}, !- Schedule Type Limits Name
  ,                                       !- Interpolate to Timestep
  24,                                     !- Hour 1
  0,                                      !- Minute 1
  4;                                      !- Value Until Time 1

OS:Schedule:Ruleset,
  {91a42d9c-79b0-4acf-8c22-92d2138deee2}, !- Handle
  0700|2100|StripMall|default|elec_equip, !- Name
  {b96038db-685d-43ea-86b1-1f9407559b34}, !- Schedule Type Limits Name
  {fe6622f1-5ede-4342-9132-d401bcc924ec}, !- Default Day Schedule Name
  {aef49736-4df2-4a73-8ff3-1d0a51cdcda1}, !- Summer Design Day Schedule Name
  {bb61fd3e-dc72-4373-9ffa-90f8cba03d77}; !- Winter Design Day Schedule Name

OS:ScheduleTypeLimits,
  {b96038db-685d-43ea-86b1-1f9407559b34}, !- Handle
  Equipment Schedule Type Limits,         !- Name
  0,                                      !- Lower Limit Value {BasedOnField A4}
  1,                                      !- Upper Limit Value {BasedOnField A4}
  Continuous,                             !- Numeric Type
  Dimensionless;                          !- Unit Type

OS:Schedule:Day,
  {fe6622f1-5ede-4342-9132-d401bcc924ec}, !- Handle
  0700|2100|StripMall|default|elec_equip |default, !- Name
  {b96038db-685d-43ea-86b1-1f9407559b34}, !- Schedule Type Limits Name
  ,                                       !- Interpolate to Timestep
  7,                                      !- Hour 1
  0,                                      !- Minute 1
  0.2,                                    !- Value Until Time 1
  8,                                      !- Hour 2
  0,                                      !- Minute 2
  0.4,                                    !- Value Until Time 2
  9,                                      !- Hour 3
  0,                                      !- Minute 3
  0.7,                                    !- Value Until Time 3
  18,                                     !- Hour 4
  0,                                      !- Minute 4
  0.9,                                    !- Value Until Time 4
  20,                                     !- Hour 5
  0,                                      !- Minute 5
  0.8,                                    !- Value Until Time 5
  21,                                     !- Hour 6
  0,                                      !- Minute 6
  0.7,                                    !- Value Until Time 6
  22,                                     !- Hour 7
  0,                                      !- Minute 7
  0.4,                                    !- Value Until Time 7
  24,                                     !- Hour 8
  0,                                      !- Minute 8
  0.2;                                    !- Value Until Time 8

OS:Schedule:Day,
  {aef49736-4df2-4a73-8ff3-1d0a51cdcda1}, !- Handle
  0700|2100|StripMall|default|elec_equip Summer Design Day, !- Name
  {b96038db-685d-43ea-86b1-1f9407559b34}, !- Schedule Type Limits Name
  ,                                       !- Interpolate to Timestep
  7,                                      !- Hour 1
  0,                                      !- Minute 1
  0.2,                                    !- Value Until Time 1
  22,                                     !- Hour 2
  0,                                      !- Minute 2
  1,                                      !- Value Until Time 2
  24,                                     !- Hour 3
  0,                                      !- Minute 3
  0.2;                                    !- Value Until Time 3

OS:Schedule:Day,
  {bb61fd3e-dc72-4373-9ffa-90f8cba03d77}, !- Handle
  0700|2100|StripMall|default|elec_equip Winter Design Day, !- Name
  {b96038db-685d-43ea-86b1-1f9407559b34}, !- Schedule Type Limits Name
  ,                                       !- Interpolate to Timestep
  24,                                     !- Hour 1
  0,                                      !- Minute 1
  0.2;                                    !- Value Until Time 1

OS:Schedule:Rule,
  {4084a465-6efe-46d7-937c-cd44408b737c}, !- Handle
  0700|2100|StripMall|default|elec_equip |1/1-12/31|Sat Rule, !- Name
  {91a42d9c-79b0-4acf-8c22-92d2138deee2}, !- Schedule Ruleset Name
  0,                                      !- Rule Order
  {7ed08b2e-11c1-4af4-a285-dc2e6888a23e}, !- Day Schedule Name
  ,                                       !- Apply Sunday
  ,                                       !- Apply Monday
  ,                                       !- Apply Tuesday
  ,                                       !- Apply Wednesday
  ,                                       !- Apply Thursday
  ,                                       !- Apply Friday
  Yes,                                    !- Apply Saturday
  ,                                       !- Apply Holiday
  DateRange,                              !- Date Specification Type
  1,                                      !- Start Month
  1,                                      !- Start Day
  12,                                     !- End Month
  31;                                     !- End Day

OS:Schedule:Day,
  {7ed08b2e-11c1-4af4-a285-dc2e6888a23e}, !- Handle
  0700|2100|StripMall|default|elec_equip |1/1-12/31|Sat, !- Name
  {b96038db-685d-43ea-86b1-1f9407559b34}, !- Schedule Type Limits Name
  ,                                       !- Interpolate to Timestep
  7,                                      !- Hour 1
  0,                                      !- Minute 1
  0.15,                                   !- Value Until Time 1
  8,                                      !- Hour 2
  0,                                      !- Minute 2
  0.3,                                    !- Value Until Time 2
  9,                                      !- Hour 3
  0,                                      !- Minute 3
  0.5,                                    !- Value Until Time 3
  10,                                     !- Hour 4
  0,                                      !- Minute 4
  0.8,                                    !- Value Until Time 4
  18,                                     !- Hour 5
  0,                                      !- Minute 5
  0.9,                                    !- Value Until Time 5
  19,                                     !- Hour 6
  0,                                      !- Minute 6
  0.7,                                    !- Value Until Time 6
  21,                                     !- Hour 7
  0,                                      !- Minute 7
  0.5,                                    !- Value Until Time 7
  22,                                     !- Hour 8
  0,                                      !- Minute 8
  0.3,                                    !- Value Until Time 8
  24,                                     !- Hour 9
  0,                                      !- Minute 9
  0.15;                                   !- Value Until Time 9

OS:Schedule:Rule,
  {c68987d6-bc09-4ddf-b87e-36902f455b85}, !- Handle
  0700|2100|StripMall|default|elec_equip |1/1-12/31|Sun Rule, !- Name
  {91a42d9c-79b0-4acf-8c22-92d2138deee2}, !- Schedule Ruleset Name
  1,                                      !- Rule Order
  {111c4fc8-cdd0-4db9-80fb-e46c3ce2e15e}, !- Day Schedule Name
  Yes,                                    !- Apply Sunday
  ,                                       !- Apply Monday
  ,                                       !- Apply Tuesday
  ,                                       !- Apply Wednesday
  ,                                       !- Apply Thursday
  ,                                       !- Apply Friday
  ,                                       !- Apply Saturday
  ,                                       !- Apply Holiday
  DateRange,                              !- Date Specification Type
  1,                                      !- Start Month
  1,                                      !- Start Day
  12,                                     !- End Month
  31;                                     !- End Day

OS:Schedule:Day,
  {111c4fc8-cdd0-4db9-80fb-e46c3ce2e15e}, !- Handle
  0700|2100|StripMall|default|elec_equip |1/1-12/31|Sun, !- Name
  {b96038db-685d-43ea-86b1-1f9407559b34}, !- Schedule Type Limits Name
  ,                                       !- Interpolate to Timestep
  8,                                      !- Hour 1
  0,                                      !- Minute 1
  0.15,                                   !- Value Until Time 1
  10,                                     !- Hour 2
  0,                                      !- Minute 2
  0.3,                                    !- Value Until Time 2
  12,                                     !- Hour 3
  0,                                      !- Minute 3
  0.6,                                    !- Value Until Time 3
  17,                                     !- Hour 4
  0,                                      !- Minute 4
  0.8,                                    !- Value Until Time 4
  18,                                     !- Hour 5
  0,                                      !- Minute 5
  0.6,                                    !- Value Until Time 5
  19,                                     !- Hour 6
  0,                                      !- Minute 6
  0.4,                                    !- Value Until Time 6
  24,                                     !- Hour 7
  0,                                      !- Minute 7
  0.15;                                   !- Value Until Time 7

OS:Schedule:Ruleset,
  {0de82d66-b7c5-445c-b8c1-67abc61f8bc8}, !- Handle
  0700|2100|StripMall|default|htg_setpoint, !- Name
  {a5b5586b-e4e7-4503-a652-b99a4fe46572}, !- Schedule Type Limits Name
  {8d248325-9da3-4cf5-85dc-57a0c4b2e9f3}, !- Default Day Schedule Name
  {2e82623c-db77-4054-84f7-b8c593153d10}, !- Summer Design Day Schedule Name
  {6d6ebe3f-66a3-4457-97ab-c72d9e6a593f}; !- Winter Design Day Schedule Name

OS:ScheduleTypeLimits,
  {a5b5586b-e4e7-4503-a652-b99a4fe46572}, !- Handle
  Thermostat Heating Setpoint Schedule Type Limits, !- Name
  0,                                      !- Lower Limit Value {BasedOnField A4}
  100,                                    !- Upper Limit Value {BasedOnField A4}
  Continuous,                             !- Numeric Type
  Temperature;                            !- Unit Type

OS:Schedule:Day,
  {8d248325-9da3-4cf5-85dc-57a0c4b2e9f3}, !- Handle
  0700|2100|StripMall|default|htg_setpoint |default, !- Name
  {a5b5586b-e4e7-4503-a652-b99a4fe46572}, !- Schedule Type Limits Name
  ,                                       !- Interpolate to Timestep
  24,                                     !- Hour 1
  0,                                      !- Minute 1
  21.0000000000001;                       !- Value Until Time 1

OS:Schedule:Day,
  {2e82623c-db77-4054-84f7-b8c593153d10}, !- Handle
  0700|2100|StripMall|default|htg_setpoint Summer Design Day, !- Name
  {a5b5586b-e4e7-4503-a652-b99a4fe46572}, !- Schedule Type Limits Name
  ,                                       !- Interpolate to Timestep
  24,                                     !- Hour 1
  0,                                      !- Minute 1
  21.0000000000001;                       !- Value Until Time 1

OS:Schedule:Day,
  {6d6ebe3f-66a3-4457-97ab-c72d9e6a593f}, !- Handle
  0700|2100|StripMall|default|htg_setpoint Winter Design Day, !- Name
  {a5b5586b-e4e7-4503-a652-b99a4fe46572}, !- Schedule Type Limits Name
  ,                                       !- Interpolate to Timestep
  24,                                     !- Hour 1
  0,                                      !- Minute 1
  21.0000000000001;                       !- Value Until Time 1

OS:Schedule:Rule,
  {d947faa4-dd48-4376-9992-446c10133ff5}, !- Handle
  0700|2100|StripMall|default|htg_setpoint |1/1-12/31|Sat Rule, !- Name
  {0de82d66-b7c5-445c-b8c1-67abc61f8bc8}, !- Schedule Ruleset Name
  0,                                      !- Rule Order
  {e4cd56ef-2f9f-4bdb-b16a-ed69ef2f5e7f}, !- Day Schedule Name
  ,                                       !- Apply Sunday
  ,                                       !- Apply Monday
  ,                                       !- Apply Tuesday
  ,                                       !- Apply Wednesday
  ,                                       !- Apply Thursday
  ,                                       !- Apply Friday
  Yes,                                    !- Apply Saturday
  ,                                       !- Apply Holiday
  DateRange,                              !- Date Specification Type
  1,                                      !- Start Month
  1,                                      !- Start Day
  12,                                     !- End Month
  31;                                     !- End Day

OS:Schedule:Day,
  {e4cd56ef-2f9f-4bdb-b16a-ed69ef2f5e7f}, !- Handle
  0700|2100|StripMall|default|htg_setpoint |1/1-12/31|Sat, !- Name
  {a5b5586b-e4e7-4503-a652-b99a4fe46572}, !- Schedule Type Limits Name
  ,                                       !- Interpolate to Timestep
  24,                                     !- Hour 1
  0,                                      !- Minute 1
  21.0000000000001;                       !- Value Until Time 1

OS:Schedule:Rule,
  {5aeeb295-8c23-43e6-92a4-c53ad0e99c65}, !- Handle
  0700|2100|StripMall|default|htg_setpoint |1/1-12/31|Sun Rule, !- Name
  {0de82d66-b7c5-445c-b8c1-67abc61f8bc8}, !- Schedule Ruleset Name
  1,                                      !- Rule Order
  {5d8b9fad-b412-4bd2-9547-d0e66aff42cf}, !- Day Schedule Name
  Yes,                                    !- Apply Sunday
  ,                                       !- Apply Monday
  ,                                       !- Apply Tuesday
  ,                                       !- Apply Wednesday
  ,                                       !- Apply Thursday
  ,                                       !- Apply Friday
  ,                                       !- Apply Saturday
  ,                                       !- Apply Holiday
  DateRange,                              !- Date Specification Type
  1,                                      !- Start Month
  1,                                      !- Start Day
  12,                                     !- End Month
  31;                                     !- End Day

OS:Schedule:Day,
  {5d8b9fad-b412-4bd2-9547-d0e66aff42cf}, !- Handle
  0700|2100|StripMall|default|htg_setpoint |1/1-12/31|Sun, !- Name
  {a5b5586b-e4e7-4503-a652-b99a4fe46572}, !- Schedule Type Limits Name
  ,                                       !- Interpolate to Timestep
  24,                                     !- Hour 1
  0,                                      !- Minute 1
  21.0000000000001;                       !- Value Until Time 1

OS:Schedule:Ruleset,
  {81e0c844-01f3-41ce-91fe-6393b60c9ba2}, !- Handle
  0700|2100|StripMall|default|rh,         !- Name
  {b0dd55f3-b0f1-4eef-80c3-e7ae17d5fc86}, !- Schedule Type Limits Name
  {0b1dc273-6df4-41b7-b021-0855da842ea0}, !- Default Day Schedule Name
  {1a558547-d5ef-46ad-99f5-c01b88c87501}, !- Summer Design Day Schedule Name
  {2d9d1e9e-7537-448c-a143-64e905029bcb}; !- Winter Design Day Schedule Name

OS:Schedule:Day,
  {0b1dc273-6df4-41b7-b021-0855da842ea0}, !- Handle
  0700|2100|StripMall|default|rh |default, !- Name
  {b0dd55f3-b0f1-4eef-80c3-e7ae17d5fc86}, !- Schedule Type Limits Name
  ,                                       !- Interpolate to Timestep
  24,                                     !- Hour 1
  0,                                      !- Minute 1
  50;                                     !- Value Until Time 1

OS:Schedule:Day,
  {1a558547-d5ef-46ad-99f5-c01b88c87501}, !- Handle
  0700|2100|StripMall|default|rh Summer Design Day, !- Name