
OS:Version,
  {3ce1c9d1-1a8e-4dc8-b674-6f7ca485207a}, !- Handle
  1.6.0;                                  !- Version Identifier

OS:ClimateZones,
  {135edfab-17e7-40db-a436-27d385a8cd6d}, !- Handle
  ,                                       !- Active Institution
  ,                                       !- Active Year
  ASHRAE,                                 !- Climate Zone Institution Name 1
  ANSI/ASHRAE Standard 169,               !- Climate Zone Document Name 1
  2006,                                   !- Climate Zone Document Year 1
  ,                                       !- Climate Zone Value 1
  CEC,                                    !- Climate Zone Institution Name 2
  California Climate Zone Descriptions,   !- Climate Zone Document Name 2
  1995,                                   !- Climate Zone Document Year 2
  ;                                       !- Climate Zone Value 2

OS:YearDescription,
  {513d8dda-86cb-442a-b01c-1f7f0e0ac70e}; !- Handle

OS:RadianceParameters,
  {270a96f1-3c86-4b75-a667-cdf22790e2c8}, !- Handle
  1,                                      !- Accumulated Rays per Record
  0,                                      !- Direct Threshold
  1,                                      !- Direct Certainty
  1,                                      !- Direct Jitter
  1,                                      !- Direct Pretest
  6,                                      !- Ambient Bounces VMX
  2,                                      !- Ambient Bounces DMX
  4050,                                   !- Ambient Divisions VMX
  512,                                    !- Ambient Divisions DMX
  256,                                    !- Ambient Supersamples
  0.001,                                  !- Limit Weight VMX
  0.001,                                  !- Limit Weight DMX
  500,                                    !- Klems Sampling Density
  146;                                    !- Sky Discretization Resolution

OS:SimulationControl,
  {2c487a4c-bac9-4ac5-b669-1e49d9da7c2b}, !- Handle
  ,                                       !- Do Zone Sizing Calculation
  ,                                       !- Do System Sizing Calculation
  ,                                       !- Do Plant Sizing Calculation
  No,                                     !- Run Simulation for Sizing Periods
  ,                                       !- Run Simulation for Weather File Run Periods
  0.04,                                   !- Loads Convergence Tolerance Value
  ,                                       !- Temperature Convergence Tolerance Value {deltaC}
  ,                                       !- Solar Distribution
  ,                                       !- Maximum Number of Warmup Days
  2;                                      !- Minimum Number of Warmup Days

OS:Sizing:Parameters,
  {dde5af6f-7923-4600-a28a-7556673a0266}, !- Handle
  1.25,                                   !- Heating Sizing Factor
  1.15;                                   !- Cooling Sizing Factor

OS:ProgramControl,
  {05027a99-f2b3-4aeb-afc6-1425fbb4371d}; !- Handle

OS:Timestep,
  {4ebc9f1e-4707-402e-9844-67eb1ffbd522}, !- Handle
  2;                                      !- Number of Timesteps per Hour

OS:OutputControl:ReportingTolerances,
  {65797aa2-06a9-45fe-b69d-bc6e060399d3}; !- Handle

OS:ConvergenceLimits,
  {9fc11aba-8822-4f3d-970c-46391ba4040d}; !- Handle

OS:ShadowCalculation,
  {ca758bea-4416-4626-9bba-3d8795c79bd6}, !- Handle
  7,                                      !- Calculation Frequency
  15000;                                  !- Maximum Figures in Shadow Overlap Calculations

OS:SurfaceConvectionAlgorithm:Inside,
  {aaabfc36-718a-4ab0-b622-f186ebb45230}, !- Handle
  TARP;                                   !- Algorithm

OS:SurfaceConvectionAlgorithm:Outside,
  {9a0a9f6f-4bbd-4b12-a121-9492a1fcd7d6}, !- Handle
  DOE-2;                                  !- Algorithm

OS:HeatBalanceAlgorithm,
  {9d93e563-e1e0-46d7-9e39-d1c8aceb7212}, !- Handle
  ConductionTransferFunction,             !- Algorithm
  200;                                    !- Surface Temperature Upper Limit {F}

OS:ZoneAirHeatBalanceAlgorithm,
  {8520d93e-310f-4696-9bcd-36228bfdd743}, !- Handle
  AnalyticalSolution;                     !- Algorithm

OS:ZoneAirContaminantBalance,
  {eb5fc3ae-fb22-4160-8fcb-3e3b22b000d3}; !- Handle

OS:ZoneCapacitanceMultiplier:ResearchSpecial,
  {4020ce4f-5a7a-4849-8028-8305d7b751b1}, !- Handle
  ,                                       !- Temperature Capacity Multiplier
  ,                                       !- Humidity Capacity Multiplier
  ;                                       !- Carbon Dioxide Capacity Multiplier

OS:RunPeriod,
  {28df894d-6af9-4fb8-8f56-df1753344aa3}, !- Handle
  Run Period 1,                           !- Name
  1,                                      !- Begin Month
  1,                                      !- Begin Day of Month
  12,                                     !- End Month
  31,                                     !- End Day of Month
  ,                                       !- Use Weather File Holidays and Special Days
  ,                                       !- Use Weather File Daylight Saving Period
  ,                                       !- Apply Weekend Holiday Rule
  ,                                       !- Use Weather File Rain Indicators
  ,                                       !- Use Weather File Snow Indicators
  ;                                       !- Number of Times Runperiod to be Repeated

OS:Building,
  {bf305633-c5a1-4881-9edf-ca5e1a8e1274}, !- Handle
  Building 1,                             !- Name
  ,                                       !- Building Sector Type
  ,                                       !- North Axis {deg}
  ,                                       !- Nominal Floor to Floor Height {m}
  ,                                       !- Space Type Name
  ,                                       !- Default Construction Set Name
  {4fca9487-b728-4929-a6b0-21ecd4fd99ca}, !- Default Schedule Set Name
  ,                                       !- Standards Number of Stories
  ,                                       !- Standards Number of Above Ground Stories
  StripMall;                              !- Standards Building Type

OS:LifeCycleCost:Parameters,
  {231cf8a0-f0e7-4251-a99f-11f0d464e661}, !- Handle
  FEMP,                                   !- Analysis Type
  ,                                       !- Discounting Convention
  ,                                       !- Inflation Approach
  ,                                       !- Real Discount Rate
  ,                                       !- Nominal Discount Rate
  ,                                       !- Inflation
  ,                                       !- Base Date Month
  ,                                       !- Base Date Year
  ,                                       !- Service Date Month
  ,                                       !- Service Date Year
  ,                                       !- Length of Study Period in Years
  ,                                       !- Tax Rate
  ,                                       !- Depreciation Method
  Yes;                                    !- Use NIST Fuel Escalation Rates

OS:Facility,
  {3ba8e45b-b833-44eb-a723-ea6c3946dc96}; !- Handle

OS:SpaceType,
  {d2ebfc90-56c9-4680-b859-54b61970bb4f}, !- Handle
  StripMall|WholeBuilding|DOE Ref Pre-1980|ASHRAE 169-2006-5A, !- Name
  {5c039c4c-d779-4f3c-83b1-fd56539f28da}, !- Default Construction Set Name
  {8b0e7ae9-2830-4d12-81c9-8bcda7f31efa}, !- Default Schedule Set Name
  {dec311ca-08ef-4b4c-8fff-a9c5b764d015}, !- Group Rendering Name
  {18c2e46a-9325-4e06-98fb-0a1489ed0adb}, !- Design Specification Outdoor Air Object Name
  StripMall,                              !- Standards Building Type
  WholeBuilding;                          !- Standards Space Type

OS:Rendering:Color,
  {dec311ca-08ef-4b4c-8fff-a9c5b764d015}, !- Handle
  Rendering Color 1,                      !- Name
  171,                                    !- Rendering Red Value
  222,                                    !- Rendering Green Value
  78;                                     !- Rendering Blue Value

OS:Schedule:Ruleset,
  {5646b072-f484-4bfb-b155-eb04b772bad9}, !- Handle
  0700|2100|StripMall|default|hoo,        !- Name
  {2da62393-9d06-4f3a-9a4d-fa5e938ea883}, !- Schedule Type Limits Name
  {7196c35f-a70e-4b2a-93b6-1c3d7ada3eb6}, !- Default Day Schedule Name
  {47c8b9b0-eb9b-4377-ac20-b860ad7a526e}, !- Summer Design Day Schedule Name
  {20022704-c7e0-432c-b4ee-cfc8168bfdcb}; !- Winter Design Day Schedule Name

OS:Schedule:Day,
  {7196c35f-a70e-4b2a-93b6-1c3d7ada3eb6}, !- Handle
  0700|2100|StripMall|default|hoo Schedule Week Day, !- Name
  {2da62393-9d06-4f3a-9a4d-fa5e938ea883}, !- Schedule Type Limits Name
  ,                                       !- Interpolate to Timestep
  7,                                      !- Hour 1
  0,                                      !- Minute 1
  0,                                      !- Value Until Time 1
  21,                                     !- Hour 2
  0,                                      !- Minute 2
  1,                                      !- Value Until Time 2
  24,                                     !- Hour 3
  0,                                      !- Minute 3
  0;                                      !- Value Until Time 3

OS:Schedule:Day,
  {490f6ac1-c1b8-49f3-abf5-7f4842bb86b8}, !- Handle
  Schedule Day 2,                         !- Name
  ,                                       !- Schedule Type Limits Name
  ,                                       !- Interpolate to Timestep
  24,                                     !- Hour 1
  0,                                      !- Minute 1
  0;                                      !- Value Until Time 1

OS:Schedule:Day,
  {20022704-c7e0-432c-b4ee-cfc8168bfdcb}, !- Handle
  0700|2100|StripMall|default|hoo Winter Design Day, !- Name
  {2da62393-9d06-4f3a-9a4d-fa5e938ea883}, !- Schedule Type Limits Name
  ,                                       !- Interpolate to Timestep
  24,                                     !- Hour 1
  0,                                      !- Minute 1
  0;                                      !- Value Until Time 1

OS:Schedule:Day,
  {364bbd5d-c003-4108-8a15-f563ae93710f}, !- Handle
  Schedule Day 3,                         !- Name
  ,                                       !- Schedule Type Limits Name
  ,                                       !- Interpolate to Timestep
  24,                                     !- Hour 1
  0,                                      !- Minute 1
  0;                                      !- Value Until Time 1

OS:Schedule:Day,
  {47c8b9b0-eb9b-4377-ac20-b860ad7a526e}, !- Handle
  0700|2100|StripMall|default|hoo Summer Design Day, !- Name
  {2da62393-9d06-4f3a-9a4d-fa5e938ea883}, !- Schedule Type Limits Name
  ,                                       !- Interpolate to Timestep
  24,                                     !- Hour 1
  0,                                      !- Minute 1
  1;                                      !- Value Until Time 1

OS:DefaultScheduleSet,
  {4fca9487-b728-4929-a6b0-21ecd4fd99ca}, !- Handle
  Building Hours of Operation,            !- Name
  {5646b072-f484-4bfb-b155-eb04b772bad9}, !- Hours of Operation Schedule Name
  ,                                       !- Number of People Schedule Name
  ,                                       !- People Activity Level Schedule Name
  ,                                       !- Lighting Schedule Name
  ,                                       !- Electric Equipment Schedule Name
  ,                                       !- Gas Equipment Schedule Name
  ,                                       !- Hot Water Equipment Schedule Name
  ,                                       !- Infiltration Schedule Name
  ,                                       !- Steam Equipment Schedule Name
  ;                                       !- Other Equipment Schedule Name

OS:ScheduleTypeLimits,
  {2da62393-9d06-4f3a-9a4d-fa5e938ea883}, !- Handle
  OnOff,                                  !- Name
  0,                                      !- Lower Limit Value {BasedOnField A4}
  1,                                      !- Upper Limit Value {BasedOnField A4}
  Discrete,                               !- Numeric Type
  Availability;                           !- Unit Type

OS:Schedule:Ruleset,
  {d6de59da-c0d9-4b71-a3ab-b693df22bb53}, !- Handle
  0700|2100|StripMall|default|htg_setpoint, !- Name
  {39fed64e-e0bc-433d-ae5f-fa23ad06d031}, !- Schedule Type Limits Name
  {af30b495-89ce-412a-a564-ae026cebaf77}, !- Default Day Schedule Name
  {ffcdb006-8069-4fe6-b783-e0fc1c490b1b}, !- Summer Design Day Schedule Name
  {8156c9cc-0880-4e4f-b800-651165596c28}; !- Winter Design Day Schedule Name

OS:ScheduleTypeLimits,
  {39fed64e-e0bc-433d-ae5f-fa23ad06d031}, !- Handle
  Thermostat Heating Setpoint Schedule Type Limits, !- Name
  0,                                      !- Lower Limit Value {BasedOnField A4}
  100,                                    !- Upper Limit Value {BasedOnField A4}
  Continuous,                             !- Numeric Type
  Temperature;                            !- Unit Type

OS:Schedule:Day,
  {af30b495-89ce-412a-a564-ae026cebaf77}, !- Handle
  0700|2100|StripMall|default|htg_setpoint |default, !- Name
  {39fed64e-e0bc-433d-ae5f-fa23ad06d031}, !- Schedule Type Limits Name
  ,                                       !- Interpolate to Timestep
  24,                                     !- Hour 1
  0,                                      !- Minute 1
  21.0000000000001;                       !- Value Until Time 1

OS:Schedule:Day,
  {ffcdb006-8069-4fe6-b783-e0fc1c490b1b}, !- Handle
  0700|2100|StripMall|default|htg_setpoint Summer Design Day, !- Name
  {39fed64e-e0bc-433d-ae5f-fa23ad06d031}, !- Schedule Type Limits Name
  ,                                       !- Interpolate to Timestep
  24,                                     !- Hour 1
  0,                                      !- Minute 1
  21.0000000000001;                       !- Value Until Time 1

OS:Schedule:Day,
  {8156c9cc-0880-4e4f-b800-651165596c28}, !- Handle
  0700|2100|StripMall|default|htg_setpoint Winter Design Day, !- Name
  {39fed64e-e0bc-433d-ae5f-fa23ad06d031}, !- Schedule Type Limits Name
  ,                                       !- Interpolate to Timestep
  24,                                     !- Hour 1
  0,                                      !- Minute 1
  21.0000000000001;                       !- Value Until Time 1

OS:Schedule:Rule,
  {29f36d15-06e6-4b0d-bd32-ea1f487bda24}, !- Handle
  0700|2100|StripMall|default|htg_setpoint |1/1-12/31|Sat Rule, !- Name
  {d6de59da-c0d9-4b71-a3ab-b693df22bb53}, !- Schedule Ruleset Name
  0,                                      !- Rule Order
  {fbecb11d-8b2d-45ac-9458-d836550f6668}, !- Day Schedule Name
  ,                                       !- Apply Sunday
  ,                                       !- Apply Monday
  ,                                       !- Apply Tuesday
  ,                                       !- Apply Wednesday
  ,                                       !- Apply Thursday
  ,                                       !- Apply Friday
  Yes,                                    !- Apply Saturday
  ,                                       !- Apply Holiday
  DateRange,                              !- Date Specification Type
  1,                                      !- Start Month
  1,                                      !- Start Day
  12,                                     !- End Month
  31;                                     !- End Day

OS:Schedule:Day,
  {fbecb11d-8b2d-45ac-9458-d836550f6668}, !- Handle
  0700|2100|StripMall|default|htg_setpoint |1/1-12/31|Sat, !- Name
  {39fed64e-e0bc-433d-ae5f-fa23ad06d031}, !- Schedule Type Limits Name
  ,                                       !- Interpolate to Timestep
  24,                                     !- Hour 1
  0,                                      !- Minute 1
  21.0000000000001;                       !- Value Until Time 1

OS:Schedule:Rule,
  {1549a3d8-723b-4613-a475-798a2276045f}, !- Handle
  0700|2100|StripMall|default|htg_setpoint |1/1-12/31|Sun Rule, !- Name
  {d6de59da-c0d9-4b71-a3ab-b693df22bb53}, !- Schedule Ruleset Name
  1,                                      !- Rule Order
  {e47ae83b-b08e-4a10-adcb-1fd15d92ffb9}, !- Day Schedule Name
  Yes,                                    !- Apply Sunday
  ,                                       !- Apply Monday
  ,                                       !- Apply Tuesday
  ,                                       !- Apply Wednesday
  ,                                       !- Apply Thursday
  ,                                       !- Apply Friday
  ,                                       !- Apply Saturday
  ,                                       !- Apply Holiday
  DateRange,                              !- Date Specification Type
  1,                                      !- Start Month
  1,                                      !- Start Day
  12,                                     !- End Month
  31;                                     !- End Day

OS:Schedule:Day,
  {e47ae83b-b08e-4a10-adcb-1fd15d92ffb9}, !- Handle
  0700|2100|StripMall|default|htg_setpoint |1/1-12/31|Sun, !- Name
  {39fed64e-e0bc-433d-ae5f-fa23ad06d031}, !- Schedule Type Limits Name
  ,                                       !- Interpolate to Timestep
  24,                                     !- Hour 1
  0,                                      !- Minute 1
  21.0000000000001;                       !- Value Until Time 1

OS:Schedule:Ruleset,
  {498d2f49-70ca-4ddc-afef-ec644dc4b5f8}, !- Handle
  0700|2100|StripMall|default|hvac,       !- Name
  {46f6b737-323c-476e-8fda-e7d93bcccacc}, !- Schedule Type Limits Name
  {a4c45633-4eb6-48ac-81d1-70e2756a8f32}, !- Default Day Schedule Name
  {823aad6f-1c43-41c8-a802-7b8f765d4151}, !- Summer Design Day Schedule Name
  {b0fd939e-0ea3-4802-8d78-788bd81283ce}; !- Winter Design Day Schedule Name

OS:ScheduleTypeLimits,
  {46f6b737-323c-476e-8fda-e7d93bcccacc}, !- Handle
  HVAC Operation Schedule Type Limits,    !- Name
  0,                                      !- Lower Limit Value {BasedOnField A4}
  1,                                      !- Upper Limit Value {BasedOnField A4}
  Discrete,                               !- Numeric Type
  Availability;                           !- Unit Type

OS:Schedule:Day,
  {a4c45633-4eb6-48ac-81d1-70e2756a8f32}, !- Handle
  0700|2100|StripMall|default|hvac |default, !- Name
  {46f6b737-323c-476e-8fda-e7d93bcccacc}, !- Schedule Type Limits Name
  ,                                       !- Interpolate to Timestep
  8,                                      !- Hour 1
  0,                                      !- Minute 1
  0,                                      !- Value Until Time 1
  19,                                     !- Hour 2
  0,                                      !- Minute 2
  1,                                      !- Value Until Time 2
  24,                                     !- Hour 3
  0,                                      !- Minute 3
  0;                                      !- Value Until Time 3

OS:Schedule:Day,
  {823aad6f-1c43-41c8-a802-7b8f765d4151}, !- Handle
  0700|2100|StripMall|default|hvac Summer Design Day, !- Name
  {46f6b737-323c-476e-8fda-e7d93bcccacc}, !- Schedule Type Limits Name
  ,                                       !- Interpolate to Timestep
  8,                                      !- Hour 1
  0,                                      !- Minute 1
  0,                                      !- Value Until Time 1
  19,                                     !- Hour 2
  0,                                      !- Minute 2
  1,                                      !- Value Until Time 2
  24,                                     !- Hour 3
  0,                                      !- Minute 3
  0;                                      !- Value Until Time 3

OS:Schedule:Day,
  {b0fd939e-0ea3-4802-8d78-788bd81283ce}, !- Handle
  0700|2100|StripMall|default|hvac Winter Design Day, !- Name
  {46f6b737-323c-476e-8fda-e7d93bcccacc}, !- Schedule Type Limits Name
  ,                                       !- Interpolate to Timestep
  8,                                      !- Hour 1
  0,                                      !- Minute 1
  0,                                      !- Value Until Time 1
  19,                                     !- Hour 2
  0,                                      !- Minute 2
  1,                                      !- Value Until Time 2
  24,                                     !- Hour 3
  0,                                      !- Minute 3
  0;                                      !- Value Until Time 3

OS:Schedule:Ruleset,
  {61789a57-c72f-4032-b509-0c6a432eba6e}, !- Handle
  0700|2100|StripMall|default|swh,        !- Name
  {064785ca-1688-4b72-ae98-9a70560dcbd6}, !- Schedule Type Limits Name
  {3d4b1dc1-8af5-4529-a581-6166669155bd}, !- Default Day Schedule Name
  {a830b8ce-055d-4178-bcc0-f40a3dfc8123}, !- Summer Design Day Schedule Name
  {3676fdde-04fc-4b2d-9ba2-b16d16a5a324}; !- Winter Design Day Schedule Name

OS:ScheduleTypeLimits,
  {064785ca-1688-4b72-ae98-9a70560dcbd6}, !- Handle
  Water Use Schedule Type Limits,         !- Name
  0,                                      !- Lower Limit Value {BasedOnField A4}
  1,                                      !- Upper Limit Value {BasedOnField A4}
  Continuous,                             !- Numeric Type
  Dimensionless;                          !- Unit Type

OS:Schedule:Day,
  {3d4b1dc1-8af5-4529-a581-6166669155bd}, !- Handle
  0700|2100|StripMall|default|swh |default, !- Name
  {064785ca-1688-4b72-ae98-9a70560dcbd6}, !- Schedule Type Limits Name
  ,                                       !- Interpolate to Timestep
  10,                                     !- Hour 1
  0,                                      !- Minute 1
  0,                                      !- Value Until Time 1
  11,                                     !- Hour 2
  0,                                      !- Minute 2
  0.12,                                   !- Value Until Time 2
  12,                                     !- Hour 3
  0,                                      !- Minute 3
  0.29,                                   !- Value Until Time 3
  13,                                     !- Hour 4
  0,                                      !- Minute 4
  0.31,                                   !- Value Until Time 4
  15,                                     !- Hour 5
  0,                                      !- Minute 5
  0.36,                                   !- Value Until Time 5
  16,                                     !- Hour 6
  0,                                      !- Minute 6
  0.34,                                   !- Value Until Time 6
  17,                                     !- Hour 7
  0,                                      !- Minute 7
  0.35,                                   !- Value Until Time 7
  18,                                     !- Hour 8
  0,                                      !- Minute 8
  0.37,                                   !- Value Until Time 8
  24,                                     !- Hour 9
  0,                                      !- Minute 9
  0;                                      !- Value Until Time 9

OS:Schedule:Day,
  {a830b8ce-055d-4178-bcc0-f40a3dfc8123}, !- Handle
  0700|2100|StripMall|default|swh Summer Design Day, !- Name
  {064785ca-1688-4b72-ae98-9a70560dcbd6}, !- Schedule Type Limits Name
  ,                                       !- Interpolate to Timestep
  10,                                     !- Hour 1
  0,                                      !- Minute 1
  0,                                      !- Value Until Time 1
  11,                                     !- Hour 2
  0,                                      !- Minute 2
  0.12,                                   !- Value Until Time 2
  12,                                     !- Hour 3
  0,                                      !- Minute 3
  0.29,                                   !- Value Until Time 3
  13,                                     !- Hour 4
  0,                                      !- Minute 4
  0.31,                                   !- Value Until Time 4
  15,                                     !- Hour 5
  0,                                      !- Minute 5
  0.36,                                   !- Value Until Time 5
  16,                                     !- Hour 6
  0,                                      !- Minute 6
  0.34,                                   !- Value Until Time 6
  17,                                     !- Hour 7
  0,                                      !- Minute 7
  0.35,                                   !- Value Until Time 7
  18,                                     !- Hour 8
  0,                                      !- Minute 8
  0.37,                                   !- Value Until Time 8
  24,                                     !- Hour 9
  0,                                      !- Minute 9
  0;                                      !- Value Until Time 9

OS:Schedule:Day,
  {3676fdde-04fc-4b2d-9ba2-b16d16a5a324}, !- Handle
  0700|2100|StripMall|default|swh Winter Design Day, !- Name
  {064785ca-1688-4b72-ae98-9a70560dcbd6}, !- Schedule Type Limits Name
  ,                                       !- Interpolate to Timestep
  10,                                     !- Hour 1
  0,                                      !- Minute 1
  0,                                      !- Value Until Time 1
  11,                                     !- Hour 2
  0,                                      !- Minute 2
  0.12,                                   !- Value Until Time 2
  12,                                     !- Hour 3
  0,                                      !- Minute 3
  0.29,                                   !- Value Until Time 3
  13,                                     !- Hour 4
  0,                                      !- Minute 4
  0.31,                                   !- Value Until Time 4
  15,                                     !- Hour 5
  0,                                      !- Minute 5
  0.36,                                   !- Value Until Time 5
  16,                                     !- Hour 6
  0,                                      !- Minute 6
  0.34,                                   !- Value Until Time 6
  17,                                     !- Hour 7
  0,                                      !- Minute 7
  0.35,                                   !- Value Until Time 7
  18,                                     !- Hour 8
  0,                                      !- Minute 8
  0.37,                                   !- Value Until Time 8
  24,                                     !- Hour 9
  0,                                      !- Minute 9
  0;                                      !- Value Until Time 9

OS:Schedule:Rule,
  {66a175ec-e8b5-42d6-a8e0-24277176eda3}, !- Handle
  0700|2100|StripMall|default|swh |1/1-12/31|Mon/Tue/Wed/Thu/Fri Rule, !- Name
  {61789a57-c72f-4032-b509-0c6a432eba6e}, !- Schedule Ruleset Name
  0,                                      !- Rule Order
  {7660567d-afcd-44d6-af17-249a4c44fe90}, !- Day Schedule Name
  ,                                       !- Apply Sunday
  Yes,                                    !- Apply Monday
  Yes,                                    !- Apply Tuesday
  Yes,                                    !- Apply Wednesday
  Yes,                                    !- Apply Thursday
  Yes,                                    !- Apply Friday
  ,                                       !- Apply Saturday
  ,                                       !- Apply Holiday
  DateRange,                              !- Date Specification Type
  1,                                      !- Start Month
  1,                                      !- Start Day
  12,                                     !- End Month
  31;                                     !- End Day

OS:Schedule:Day,
  {7660567d-afcd-44d6-af17-249a4c44fe90}, !- Handle
  0700|2100|StripMall|default|swh |1/1-12/31|Mon/Tue/Wed/Thu/Fri, !- Name
  {064785ca-1688-4b72-ae98-9a70560dcbd6}, !- Schedule Type Limits Name
  ,                                       !- Interpolate to Timestep
  9,                                      !- Hour 1
  0,                                      !- Minute 1
  0,                                      !- Value Until Time 1
  10,                                     !- Hour 2
  0,                                      !- Minute 2
  0.15,                                   !- Value Until Time 2
  11,                                     !- Hour 3
  0,                                      !- Minute 3
  0.25,                                   !- Value Until Time 3
  12,                                     !- Hour 4
  0,                                      !- Minute 4
  0.41,                                   !- Value Until Time 4
  13,                                     !- Hour 5
  0,                                      !- Minute 5
  0.57,                                   !- Value Until Time 5
  14,                                     !- Hour 6
  0,                                      !- Minute 6
  0.62,                                   !- Value Until Time 6
  15,                                     !- Hour 7
  0,                                      !- Minute 7
  0.61,                                   !- Value Until Time 7
  16,                                     !- Hour 8
  0,                                      !- Minute 8
  0.5,                                    !- Value Until Time 8
  17,                                     !- Hour 9
  0,                                      !- Minute 9
  0.45,                                   !- Value Until Time 9