
OS:Version,
  {8fecc83a-be7f-48d3-b91a-2b082a83a5cf}, !- Handle
  1.6.0;                                  !- Version Identifier

OS:ClimateZones,
  {135edfab-17e7-40db-a436-27d385a8cd6d}, !- Handle
  ,                                       !- Active Institution
  ,                                       !- Active Year
  ASHRAE,                                 !- Climate Zone Institution Name 1
  ANSI/ASHRAE Standard 169,               !- Climate Zone Document Name 1
  2006,                                   !- Climate Zone Document Year 1
  ,                                       !- Climate Zone Value 1
  CEC,                                    !- Climate Zone Institution Name 2
  California Climate Zone Descriptions,   !- Climate Zone Document Name 2
  1995,                                   !- Climate Zone Document Year 2
  ;                                       !- Climate Zone Value 2

OS:YearDescription,
  {513d8dda-86cb-442a-b01c-1f7f0e0ac70e}; !- Handle

OS:RadianceParameters,
  {270a96f1-3c86-4b75-a667-cdf22790e2c8}, !- Handle
  1,                                      !- Accumulated Rays per Record
  0,                                      !- Direct Threshold
  1,                                      !- Direct Certainty
  1,                                      !- Direct Jitter
  1,                                      !- Direct Pretest
  6,                                      !- Ambient Bounces VMX
  2,                                      !- Ambient Bounces DMX
  4050,                                   !- Ambient Divisions VMX
  512,                                    !- Ambient Divisions DMX
  256,                                    !- Ambient Supersamples
  0.001,                                  !- Limit Weight VMX
  0.001,                                  !- Limit Weight DMX
  500,                                    !- Klems Sampling Density
  146;                                    !- Sky Discretization Resolution

OS:SimulationControl,
  {2c487a4c-bac9-4ac5-b669-1e49d9da7c2b}, !- Handle
  ,                                       !- Do Zone Sizing Calculation
  ,                                       !- Do System Sizing Calculation
  ,                                       !- Do Plant Sizing Calculation
  No,                                     !- Run Simulation for Sizing Periods
  ,                                       !- Run Simulation for Weather File Run Periods
  0.04,                                   !- Loads Convergence Tolerance Value
  ,                                       !- Temperature Convergence Tolerance Value {deltaC}
  ,                                       !- Solar Distribution
  ,                                       !- Maximum Number of Warmup Days
  2;                                      !- Minimum Number of Warmup Days

OS:Sizing:Parameters,
  {dde5af6f-7923-4600-a28a-7556673a0266}, !- Handle
  1.25,                                   !- Heating Sizing Factor
  1.15;                                   !- Cooling Sizing Factor

OS:ProgramControl,
  {05027a99-f2b3-4aeb-afc6-1425fbb4371d}; !- Handle

OS:Timestep,
  {4ebc9f1e-4707-402e-9844-67eb1ffbd522}, !- Handle
  2;                                      !- Number of Timesteps per Hour

OS:OutputControl:ReportingTolerances,
  {65797aa2-06a9-45fe-b69d-bc6e060399d3}; !- Handle

OS:ConvergenceLimits,
  {9fc11aba-8822-4f3d-970c-46391ba4040d}; !- Handle

OS:ShadowCalculation,
  {ca758bea-4416-4626-9bba-3d8795c79bd6}, !- Handle
  7,                                      !- Calculation Frequency
  15000;                                  !- Maximum Figures in Shadow Overlap Calculations

OS:SurfaceConvectionAlgorithm:Inside,
  {aaabfc36-718a-4ab0-b622-f186ebb45230}, !- Handle
  TARP;                                   !- Algorithm

OS:SurfaceConvectionAlgorithm:Outside,
  {9a0a9f6f-4bbd-4b12-a121-9492a1fcd7d6}, !- Handle
  DOE-2;                                  !- Algorithm

OS:HeatBalanceAlgorithm,
  {9d93e563-e1e0-46d7-9e39-d1c8aceb7212}, !- Handle
  ConductionTransferFunction,             !- Algorithm
  200;                                    !- Surface Temperature Upper Limit {F}

OS:ZoneAirHeatBalanceAlgorithm,
  {8520d93e-310f-4696-9bcd-36228bfdd743}, !- Handle
  AnalyticalSolution;                     !- Algorithm

OS:ZoneAirContaminantBalance,
  {eb5fc3ae-fb22-4160-8fcb-3e3b22b000d3}; !- Handle

OS:ZoneCapacitanceMultiplier:ResearchSpecial,
  {4020ce4f-5a7a-4849-8028-8305d7b751b1}, !- Handle
  ,                                       !- Temperature Capacity Multiplier
  ,                                       !- Humidity Capacity Multiplier
  ;                                       !- Carbon Dioxide Capacity Multiplier

OS:RunPeriod,
  {28df894d-6af9-4fb8-8f56-df1753344aa3}, !- Handle
  Run Period 1,                           !- Name
  1,                                      !- Begin Month
  1,                                      !- Begin Day of Month
  12,                                     !- End Month
  31,                                     !- End Day of Month
  ,                                       !- Use Weather File Holidays and Special Days
  ,                                       !- Use Weather File Daylight Saving Period
  ,                                       !- Apply Weekend Holiday Rule
  ,                                       !- Use Weather File Rain Indicators
  ,                                       !- Use Weather File Snow Indicators
  ;                                       !- Number of Times Runperiod to be Repeated

OS:Building,
  {bf305633-c5a1-4881-9edf-ca5e1a8e1274}, !- Handle
  Building 1,                             !- Name
  ,                                       !- Building Sector Type
  ,                                       !- North Axis {deg}
  ,                                       !- Nominal Floor to Floor Height {m}
  ,                                       !- Space Type Name
  ,                                       !- Default Construction Set Name
  {6b907cf6-783b-41fd-b7d7-b3c25d49b28b}, !- Default Schedule Set Name
  ,                                       !- Standards Number of Stories
  ,                                       !- Standards Number of Above Ground Stories
  StripMall;                              !- Standards Building Type

OS:LifeCycleCost:Parameters,
  {231cf8a0-f0e7-4251-a99f-11f0d464e661}, !- Handle
  FEMP,                                   !- Analysis Type
  ,                                       !- Discounting Convention
  ,                                       !- Inflation Approach
  ,                                       !- Real Discount Rate
  ,                                       !- Nominal Discount Rate
  ,                                       !- Inflation
  ,                                       !- Base Date Month
  ,                                       !- Base Date Year
  ,                                       !- Service Date Month
  ,                                       !- Service Date Year
  ,                                       !- Length of Study Period in Years
  ,                                       !- Tax Rate
  ,                                       !- Depreciation Method
  Yes;                                    !- Use NIST Fuel Escalation Rates

OS:Facility,
  {3ba8e45b-b833-44eb-a723-ea6c3946dc96}; !- Handle

OS:SpaceType,
  {dc40608b-624f-4d53-81a3-3b1c2a89b156}, !- Handle
  StripMall|WholeBuilding|DOE Ref 2004|ASHRAE 169-2006-5A, !- Name
  {73c94a9f-f3a4-4762-9f25-370e086f6a14}, !- Default Construction Set Name
  {7f7c9a39-e4c0-42de-9d16-0dae55d49b75}, !- Default Schedule Set Name
  {5011345b-7687-40be-ae9d-4a00d50c44c6}, !- Group Rendering Name
  {72253bb6-facf-4fc4-9bb3-8990563bb7c9}, !- Design Specification Outdoor Air Object Name
  StripMall,                              !- Standards Building Type
  WholeBuilding;                          !- Standards Space Type

OS:Rendering:Color,
  {5011345b-7687-40be-ae9d-4a00d50c44c6}, !- Handle
  Rendering Color 1,                      !- Name
  171,                                    !- Rendering Red Value
  222,                                    !- Rendering Green Value
  78;                                     !- Rendering Blue Value

OS:Schedule:Ruleset,
  {2379129c-86df-4360-b5fa-3993ec8a051d}, !- Handle
  0700|2100|StripMall|default|hoo,        !- Name
  {e22ef87b-4a76-45bb-aff2-eeeda23e3b41}, !- Schedule Type Limits Name
  {4ff3f307-f59f-48f5-80e6-aee0ce8bba2e}, !- Default Day Schedule Name
  {f4f6b6a3-2bbd-47bb-a147-9b709d53efdf}, !- Summer Design Day Schedule Name
  {12674faf-dc0a-4425-9ab3-30e45b002f18}; !- Winter Design Day Schedule Name

OS:Schedule:Day,
  {4ff3f307-f59f-48f5-80e6-aee0ce8bba2e}, !- Handle
  0700|2100|StripMall|default|hoo Schedule Week Day, !- Name
  {e22ef87b-4a76-45bb-aff2-eeeda23e3b41}, !- Schedule Type Limits Name
  ,                                       !- Interpolate to Timestep
  7,                                      !- Hour 1
  0,                                      !- Minute 1
  0,                                      !- Value Until Time 1
  21,                                     !- Hour 2
  0,                                      !- Minute 2
  1,                                      !- Value Until Time 2
  24,                                     !- Hour 3
  0,                                      !- Minute 3
  0;                                      !- Value Until Time 3

OS:Schedule:Day,
  {d825bd7c-6ad4-40bc-bb4d-982992189bf1}, !- Handle
  Schedule Day 2,                         !- Name
  ,                                       !- Schedule Type Limits Name
  ,                                       !- Interpolate to Timestep
  24,                                     !- Hour 1
  0,                                      !- Minute 1
  0;                                      !- Value Until Time 1

OS:Schedule:Day,
  {12674faf-dc0a-4425-9ab3-30e45b002f18}, !- Handle
  0700|2100|StripMall|default|hoo Winter Design Day, !- Name
  {e22ef87b-4a76-45bb-aff2-eeeda23e3b41}, !- Schedule Type Limits Name
  ,                                       !- Interpolate to Timestep
  24,                                     !- Hour 1
  0,                                      !- Minute 1
  0;                                      !- Value Until Time 1

OS:Schedule:Day,
  {435d1560-e0d3-41aa-ac6e-445f76cd3701}, !- Handle
  Schedule Day 3,                         !- Name
  ,                                       !- Schedule Type Limits Name
  ,                                       !- Interpolate to Timestep
  24,                                     !- Hour 1
  0,                                      !- Minute 1
  0;                                      !- Value Until Time 1

OS:Schedule:Day,
  {f4f6b6a3-2bbd-47bb-a147-9b709d53efdf}, !- Handle
  0700|2100|StripMall|default|hoo Summer Design Day, !- Name
  {e22ef87b-4a76-45bb-aff2-eeeda23e3b41}, !- Schedule Type Limits Name
  ,                                       !- Interpolate to Timestep
  24,                                     !- Hour 1
  0,                                      !- Minute 1
  1;                                      !- Value Until Time 1

OS:DefaultScheduleSet,
  {6b907cf6-783b-41fd-b7d7-b3c25d49b28b}, !- Handle
  Building Hours of Operation,            !- Name
  {2379129c-86df-4360-b5fa-3993ec8a051d}, !- Hours of Operation Schedule Name
  ,                                       !- Number of People Schedule Name
  ,                                       !- People Activity Level Schedule Name
  ,                                       !- Lighting Schedule Name
  ,                                       !- Electric Equipment Schedule Name
  ,                                       !- Gas Equipment Schedule Name
  ,                                       !- Hot Water Equipment Schedule Name
  ,                                       !- Infiltration Schedule Name
  ,                                       !- Steam Equipment Schedule Name
  ;                                       !- Other Equipment Schedule Name

OS:ScheduleTypeLimits,
  {e22ef87b-4a76-45bb-aff2-eeeda23e3b41}, !- Handle
  OnOff,                                  !- Name
  0,                                      !- Lower Limit Value {BasedOnField A4}
  1,                                      !- Upper Limit Value {BasedOnField A4}
  Discrete,                               !- Numeric Type
  Availability;                           !- Unit Type

OS:Schedule:Ruleset,
  {527f086f-9d77-4da0-a938-9c1472b45171}, !- Handle
  0700|2100|StripMall|default|htg_setpoint, !- Name
  {fa38d91b-c85b-4bd4-94ab-c7abfc12e914}, !- Schedule Type Limits Name
  {662d8785-c80f-4958-8116-98538065da79}, !- Default Day Schedule Name
  {ef5ae65b-1020-493a-a27e-deff96545ca9}, !- Summer Design Day Schedule Name
  {2e546af3-0be6-40c3-a192-062b65ff61e6}; !- Winter Design Day Schedule Name

OS:ScheduleTypeLimits,
  {fa38d91b-c85b-4bd4-94ab-c7abfc12e914}, !- Handle
  Thermostat Heating Setpoint Schedule Type Limits, !- Name
  0,                                      !- Lower Limit Value {BasedOnField A4}
  100,                                    !- Upper Limit Value {BasedOnField A4}
  Continuous,                             !- Numeric Type
  Temperature;                            !- Unit Type

OS:Schedule:Day,
  {662d8785-c80f-4958-8116-98538065da79}, !- Handle
  0700|2100|StripMall|default|htg_setpoint |default, !- Name
  {fa38d91b-c85b-4bd4-94ab-c7abfc12e914}, !- Schedule Type Limits Name
  ,                                       !- Interpolate to Timestep
  24,                                     !- Hour 1
  0,                                      !- Minute 1
  21.0000000000001;                       !- Value Until Time 1

OS:Schedule:Day,
  {ef5ae65b-1020-493a-a27e-deff96545ca9}, !- Handle
  0700|2100|StripMall|default|htg_setpoint Summer Design Day, !- Name
  {fa38d91b-c85b-4bd4-94ab-c7abfc12e914}, !- Schedule Type Limits Name
  ,                                       !- Interpolate to Timestep
  24,                                     !- Hour 1
  0,                                      !- Minute 1
  21.0000000000001;                       !- Value Until Time 1

OS:Schedule:Day,
  {2e546af3-0be6-40c3-a192-062b65ff61e6}, !- Handle
  0700|2100|StripMall|default|htg_setpoint Winter Design Day, !- Name
  {fa38d91b-c85b-4bd4-94ab-c7abfc12e914}, !- Schedule Type Limits Name
  ,                                       !- Interpolate to Timestep
  24,                                     !- Hour 1
  0,                                      !- Minute 1
  21.0000000000001;                       !- Value Until Time 1

OS:Schedule:Rule,
  {66bc661e-5652-4680-a0df-be4d011463be}, !- Handle
  0700|2100|StripMall|default|htg_setpoint |1/1-12/31|Sat Rule, !- Name
  {527f086f-9d77-4da0-a938-9c1472b45171}, !- Schedule Ruleset Name
  0,                                      !- Rule Order
  {4227dc2d-425e-4a5f-98a5-a5a4db24ed6b}, !- Day Schedule Name
  ,                                       !- Apply Sunday
  ,                                       !- Apply Monday
  ,                                       !- Apply Tuesday
  ,                                       !- Apply Wednesday
  ,                                       !- Apply Thursday
  ,                                       !- Apply Friday
  Yes,                                    !- Apply Saturday
  ,                                       !- Apply Holiday
  DateRange,                              !- Date Specification Type
  1,                                      !- Start Month
  1,                                      !- Start Day
  12,                                     !- End Month
  31;                                     !- End Day

OS:Schedule:Day,
  {4227dc2d-425e-4a5f-98a5-a5a4db24ed6b}, !- Handle
  0700|2100|StripMall|default|htg_setpoint |1/1-12/31|Sat, !- Name
  {fa38d91b-c85b-4bd4-94ab-c7abfc12e914}, !- Schedule Type Limits Name
  ,                                       !- Interpolate to Timestep
  24,                                     !- Hour 1
  0,                                      !- Minute 1
  21.0000000000001;                       !- Value Until Time 1

OS:Schedule:Rule,
  {b8d483ba-c8a1-4b3f-99a1-9b9b9e85d670}, !- Handle
  0700|2100|StripMall|default|htg_setpoint |1/1-12/31|Sun Rule, !- Name
  {527f086f-9d77-4da0-a938-9c1472b45171}, !- Schedule Ruleset Name
  1,                                      !- Rule Order
  {9baa15ac-6c15-4bce-bb56-70dfdda2b1e8}, !- Day Schedule Name
  Yes,                                    !- Apply Sunday
  ,                                       !- Apply Monday
  ,                                       !- Apply Tuesday
  ,                                       !- Apply Wednesday
  ,                                       !- Apply Thursday
  ,                                       !- Apply Friday
  ,                                       !- Apply Saturday
  ,                                       !- Apply Holiday
  DateRange,                              !- Date Specification Type
  1,                                      !- Start Month
  1,                                      !- Start Day
  12,                                     !- End Month
  31;                                     !- End Day

OS:Schedule:Day,
  {9baa15ac-6c15-4bce-bb56-70dfdda2b1e8}, !- Handle
  0700|2100|StripMall|default|htg_setpoint |1/1-12/31|Sun, !- Name
  {fa38d91b-c85b-4bd4-94ab-c7abfc12e914}, !- Schedule Type Limits Name
  ,                                       !- Interpolate to Timestep
  24,                                     !- Hour 1
  0,                                      !- Minute 1
  21.0000000000001;                       !- Value Until Time 1

OS:Schedule:Ruleset,
  {cf666339-d0f0-477a-b13b-81550020772b}, !- Handle
  0700|2100|StripMall|default|hvac,       !- Name
  {7d30fb6a-7087-494d-a6d8-8e7937689404}, !- Schedule Type Limits Name
  {0776ee41-511b-4f05-8b47-442067ace669}, !- Default Day Schedule Name
  {ba08ae41-125c-4dbe-9dba-e3eea0da8719}, !- Summer Design Day Schedule Name
  {fa49b7de-ad2a-47c2-b424-8204a008dd4a}; !- Winter Design Day Schedule Name

OS:ScheduleTypeLimits,
  {7d30fb6a-7087-494d-a6d8-8e7937689404}, !- Handle
  HVAC Operation Schedule Type Limits,    !- Name
  0,                                      !- Lower Limit Value {BasedOnField A4}
  1,                                      !- Upper Limit Value {BasedOnField A4}
  Discrete,                               !- Numeric Type
  Availability;                           !- Unit Type

OS:Schedule:Day,
  {0776ee41-511b-4f05-8b47-442067ace669}, !- Handle
  0700|2100|StripMall|default|hvac |default, !- Name
  {7d30fb6a-7087-494d-a6d8-8e7937689404}, !- Schedule Type Limits Name
  ,                                       !- Interpolate to Timestep
  8,                                      !- Hour 1
  0,                                      !- Minute 1
  0,                                      !- Value Until Time 1
  19,                                     !- Hour 2
  0,                                      !- Minute 2
  1,                                      !- Value Until Time 2
  24,                                     !- Hour 3
  0,                                      !- Minute 3
  0;                                      !- Value Until Time 3

OS:Schedule:Day,
  {ba08ae41-125c-4dbe-9dba-e3eea0da8719}, !- Handle
  0700|2100|StripMall|default|hvac Summer Design Day, !- Name
  {7d30fb6a-7087-494d-a6d8-8e7937689404}, !- Schedule Type Limits Name
  ,                                       !- Interpolate to Timestep
  8,                                      !- Hour 1
  0,                                      !- Minute 1
  0,                                      !- Value Until Time 1
  19,                                     !- Hour 2
  0,                                      !- Minute 2
  1,                                      !- Value Until Time 2
  24,                                     !- Hour 3
  0,                                      !- Minute 3
  0;                                      !- Value Until Time 3

OS:Schedule:Day,
  {fa49b7de-ad2a-47c2-b424-8204a008dd4a}, !- Handle
  0700|2100|StripMall|default|hvac Winter Design Day, !- Name
  {7d30fb6a-7087-494d-a6d8-8e7937689404}, !- Schedule Type Limits Name
  ,                                       !- Interpolate to Timestep
  8,                                      !- Hour 1
  0,                                      !- Minute 1
  0,                                      !- Value Until Time 1
  19,                                     !- Hour 2
  0,                                      !- Minute 2
  1,                                      !- Value Until Time 2
  24,                                     !- Hour 3
  0,                                      !- Minute 3
  0;                                      !- Value Until Time 3

OS:Schedule:Ruleset,
  {c47d1de9-9855-431c-92d3-27da92888448}, !- Handle
  0700|2100|StripMall|default|swh,        !- Name
  {dca1a2da-ccee-4ef7-88a0-eca070ef581e}, !- Schedule Type Limits Name
  {f54bfa99-b129-4119-8777-697f76e854fd}, !- Default Day Schedule Name
  {f4425a68-fce9-4d10-befb-46c6d9ec60a5}, !- Summer Design Day Schedule Name
  {770794cd-c13d-4164-aa29-bc7eb6cf5be9}; !- Winter Design Day Schedule Name

OS:ScheduleTypeLimits,
  {dca1a2da-ccee-4ef7-88a0-eca070ef581e}, !- Handle
  Water Use Schedule Type Limits,         !- Name
  0,                                      !- Lower Limit Value {BasedOnField A4}
  1,                                      !- Upper Limit Value {BasedOnField A4}
  Continuous,                             !- Numeric Type
  Dimensionless;                          !- Unit Type

OS:Schedule:Day,
  {f54bfa99-b129-4119-8777-697f76e854fd}, !- Handle
  0700|2100|StripMall|default|swh |default, !- Name
  {dca1a2da-ccee-4ef7-88a0-eca070ef581e}, !- Schedule Type Limits Name
  ,                                       !- Interpolate to Timestep
  10,                                     !- Hour 1
  0,                                      !- Minute 1
  0,                                      !- Value Until Time 1
  11,                                     !- Hour 2
  0,                                      !- Minute 2
  0.12,                                   !- Value Until Time 2
  12,                                     !- Hour 3
  0,                                      !- Minute 3
  0.29,                                   !- Value Until Time 3
  13,                                     !- Hour 4
  0,                                      !- Minute 4
  0.31,                                   !- Value Until Time 4
  15,                                     !- Hour 5
  0,                                      !- Minute 5
  0.36,                                   !- Value Until Time 5
  16,                                     !- Hour 6
  0,                                      !- Minute 6
  0.34,                                   !- Value Until Time 6
  17,                                     !- Hour 7
  0,                                      !- Minute 7
  0.35,                                   !- Value Until Time 7
  18,                                     !- Hour 8
  0,                                      !- Minute 8
  0.37,                                   !- Value Until Time 8
  24,                                     !- Hour 9
  0,                                      !- Minute 9
  0;                                      !- Value Until Time 9

OS:Schedule:Day,
  {f4425a68-fce9-4d10-befb-46c6d9ec60a5}, !- Handle
  0700|2100|StripMall|default|swh Summer Design Day, !- Name
  {dca1a2da-ccee-4ef7-88a0-eca070ef581e}, !- Schedule Type Limits Name
  ,                                       !- Interpolate to Timestep
  10,                                     !- Hour 1
  0,                                      !- Minute 1
  0,                                      !- Value Until Time 1
  11,                                     !- Hour 2
  0,                                      !- Minute 2
  0.12,                                   !- Value Until Time 2
  12,                                     !- Hour 3
  0,                                      !- Minute 3
  0.29,                                   !- Value Until Time 3
  13,                                     !- Hour 4
  0,                                      !- Minute 4
  0.31,                                   !- Value Until Time 4
  15,                                     !- Hour 5
  0,                                      !- Minute 5
  0.36,                                   !- Value Until Time 5
  16,                                     !- Hour 6
  0,                                      !- Minute 6
  0.34,                                   !- Value Until Time 6
  17,                                     !- Hour 7
  0,                                      !- Minute 7
  0.35,                                   !- Value Until Time 7
  18,                                     !- Hour 8
  0,                                      !- Minute 8
  0.37,                                   !- Value Until Time 8
  24,                                     !- Hour 9
  0,                                      !- Minute 9
  0;                                      !- Value Until Time 9

OS:Schedule:Day,
  {770794cd-c13d-4164-aa29-bc7eb6cf5be9}, !- Handle
  0700|2100|StripMall|default|swh Winter Design Day, !- Name
  {dca1a2da-ccee-4ef7-88a0-eca070ef581e}, !- Schedule Type Limits Name
  ,                                       !- Interpolate to Timestep
  10,                                     !- Hour 1
  0,                                      !- Minute 1
  0,                                      !- Value Until Time 1
  11,                                     !- Hour 2
  0,                                      !- Minute 2
  0.12,                                   !- Value Until Time 2
  12,                                     !- Hour 3
  0,                                      !- Minute 3
  0.29,                                   !- Value Until Time 3
  13,                                     !- Hour 4
  0,                                      !- Minute 4
  0.31,                                   !- Value Until Time 4
  15,                                     !- Hour 5
  0,                                      !- Minute 5
  0.36,                                   !- Value Until Time 5
  16,                                     !- Hour 6
  0,                                      !- Minute 6
  0.34,                                   !- Value Until Time 6
  17,                                     !- Hour 7
  0,                                      !- Minute 7
  0.35,                                   !- Value Until Time 7
  18,                                     !- Hour 8
  0,                                      !- Minute 8
  0.37,                                   !- Value Until Time 8
  24,                                     !- Hour 9
  0,                                      !- Minute 9
  0;                                      !- Value Until Time 9

OS:Schedule:Rule,
  {53a784a2-6bb1-4820-a2c0-64a5ba35a13c}, !- Handle
  0700|2100|StripMall|default|swh |1/1-12/31|Mon/Tue/Wed/Thu/Fri Rule, !- Name
  {c47d1de9-9855-431c-92d3-27da92888448}, !- Schedule Ruleset Name
  0,                                      !- Rule Order
  {828beb99-7308-4d87-b65a-19d4f41728e9}, !- Day Schedule Name
  ,                                       !- Apply Sunday
  Yes,                                    !- Apply Monday
  Yes,                                    !- Apply Tuesday
  Yes,                                    !- Apply Wednesday
  Yes,                                    !- Apply Thursday
  Yes,                                    !- Apply Friday
  ,                                       !- Apply Saturday
  ,                                       !- Apply Holiday
  DateRange,                              !- Date Specification Type
  1,                                      !- Start Month
  1,                                      !- Start Day
  12,                                     !- End Month
  31;                                     !- End Day

OS:Schedule:Day,
  {828beb99-7308-4d87-b65a-19d4f41728e9}, !- Handle
  0700|2100|StripMall|default|swh |1/1-12/31|Mon/Tue/Wed/Thu/Fri, !- Name
  {dca1a2da-ccee-4ef7-88a0-eca070ef581e}, !- Schedule Type Limits Name
  ,                                       !- Interpolate to Timestep
  9,                                      !- Hour 1
  0,                                      !- Minute 1
  0,                                      !- Value Until Time 1
  10,                                     !- Hour 2
  0,                                      !- Minute 2
  0.15,                                   !- Value Until Time 2
  11,                                     !- Hour 3
  0,                                      !- Minute 3
  0.25,                                   !- Value Until Time 3
  12,                                     !- Hour 4
  0,                                      !- Minute 4
  0.41,                                   !- Value Until Time 4
  13,                                     !- Hour 5
  0,                                      !- Minute 5
  0.57,                                   !- Value Until Time 5
  14,                                     !- Hour 6
  0,                                      !- Minute 6
  0.62,                                   !- Value Until Time 6
  15,                                     !- Hour 7
  0,                                      !- Minute 7
  0.61,                                   !- Value Until Time 7
  16,                                     !- Hour 8
  0,                                      !- Minute 8
  0.5,                                    !- Value Until Time 8
  17,                                     !- Hour 9
  0,                                      !- Minute 9
  0.45,                                   !- Value Until Time 9