
OS:Version,
  {3ed1770d-c5a1-4064-9f7f-12c0d2537f34}, !- Handle
  1.5.5;                                  !- Version Identifier

OS:ClimateZones,
  {135edfab-17e7-40db-a436-27d385a8cd6d}, !- Handle
  ,                                       !- Active Institution
  ,                                       !- Active Year
  ASHRAE,                                 !- Climate Zone Institution Name 1
  ANSI/ASHRAE Standard 169,               !- Climate Zone Document Name 1
  2006,                                   !- Climate Zone Document Year 1
  ,                                       !- Climate Zone Value 1
  CEC,                                    !- Climate Zone Institution Name 2
  California Climate Zone Descriptions,   !- Climate Zone Document Name 2
  1995,                                   !- Climate Zone Document Year 2
  ;                                       !- Climate Zone Value 2

OS:YearDescription,
  {513d8dda-86cb-442a-b01c-1f7f0e0ac70e}; !- Handle

OS:RadianceParameters,
  {270a96f1-3c86-4b75-a667-cdf22790e2c8}, !- Handle
  1,                                      !- Accumulated Rays per Record
  0,                                      !- Direct Threshold
  1,                                      !- Direct Certainty
  1,                                      !- Direct Jitter
  1,                                      !- Direct Pretest
  6,                                      !- Ambient Bounces VMX
  2,                                      !- Ambient Bounces DMX
  4050,                                   !- Ambient Divisions VMX
  512,                                    !- Ambient Divisions DMX
  256,                                    !- Ambient Supersamples
  0.001,                                  !- Limit Weight VMX
  0.001,                                  !- Limit Weight DMX
  500,                                    !- Klems Sampling Density
  146;                                    !- Sky Discretization Resolution

OS:SimulationControl,
  {2c487a4c-bac9-4ac5-b669-1e49d9da7c2b}, !- Handle
  ,                                       !- Do Zone Sizing Calculation
  ,                                       !- Do System Sizing Calculation
  ,                                       !- Do Plant Sizing Calculation
  No,                                     !- Run Simulation for Sizing Periods
  ,                                       !- Run Simulation for Weather File Run Periods
  0.04,                                   !- Loads Convergence Tolerance Value
  ,                                       !- Temperature Convergence Tolerance Value {deltaC}
  ,                                       !- Solar Distribution
  ,                                       !- Maximum Number of Warmup Days
  2;                                      !- Minimum Number of Warmup Days

OS:Sizing:Parameters,
  {dde5af6f-7923-4600-a28a-7556673a0266}, !- Handle
  1.25,                                   !- Heating Sizing Factor
  1.15;                                   !- Cooling Sizing Factor

OS:ProgramControl,
  {05027a99-f2b3-4aeb-afc6-1425fbb4371d}; !- Handle

OS:Timestep,
  {4ebc9f1e-4707-402e-9844-67eb1ffbd522}, !- Handle
  2;                                      !- Number of Timesteps per Hour

OS:OutputControl:ReportingTolerances,
  {65797aa2-06a9-45fe-b69d-bc6e060399d3}; !- Handle

OS:ConvergenceLimits,
  {9fc11aba-8822-4f3d-970c-46391ba4040d}; !- Handle

OS:ShadowCalculation,
  {ca758bea-4416-4626-9bba-3d8795c79bd6}, !- Handle
  7,                                      !- Calculation Frequency
  15000;                                  !- Maximum Figures in Shadow Overlap Calculations

OS:SurfaceConvectionAlgorithm:Inside,
  {aaabfc36-718a-4ab0-b622-f186ebb45230}, !- Handle
  TARP;                                   !- Algorithm

OS:SurfaceConvectionAlgorithm:Outside,
  {9a0a9f6f-4bbd-4b12-a121-9492a1fcd7d6}, !- Handle
  DOE-2;                                  !- Algorithm

OS:HeatBalanceAlgorithm,
  {9d93e563-e1e0-46d7-9e39-d1c8aceb7212}, !- Handle
  ConductionTransferFunction,             !- Algorithm
  200;                                    !- Surface Temperature Upper Limit {F}

OS:ZoneAirHeatBalanceAlgorithm,
  {8520d93e-310f-4696-9bcd-36228bfdd743}, !- Handle
  AnalyticalSolution;                     !- Algorithm

OS:ZoneAirContaminantBalance,
  {eb5fc3ae-fb22-4160-8fcb-3e3b22b000d3}; !- Handle

OS:ZoneCapacitanceMultiplier:ResearchSpecial,
  {4020ce4f-5a7a-4849-8028-8305d7b751b1}, !- Handle
  ,                                       !- Temperature Capacity Multiplier
  ,                                       !- Humidity Capacity Multiplier
  ;                                       !- Carbon Dioxide Capacity Multiplier

OS:RunPeriod,
  {28df894d-6af9-4fb8-8f56-df1753344aa3}, !- Handle
  Run Period 1,                           !- Name
  1,                                      !- Begin Month
  1,                                      !- Begin Day of Month
  12,                                     !- End Month
  31,                                     !- End Day of Month
  ,                                       !- Use Weather File Holidays and Special Days
  ,                                       !- Use Weather File Daylight Saving Period
  ,                                       !- Apply Weekend Holiday Rule
  ,                                       !- Use Weather File Rain Indicators
  ,                                       !- Use Weather File Snow Indicators
  ;                                       !- Number of Times Runperiod to be Repeated

OS:Building,
  {bf305633-c5a1-4881-9edf-ca5e1a8e1274}, !- Handle
  Building 1,                             !- Name
  ,                                       !- Building Sector Type
  ,                                       !- North Axis {deg}
  ,                                       !- Nominal Floor to Floor Height {m}
  ,                                       !- Space Type Name
  ,                                       !- Default Construction Set Name
  {438fbc01-e3a7-4d11-9e75-3c714fe998ac}, !- Default Schedule Set Name
  ,                                       !- Standards Number of Stories
  ,                                       !- Standards Number of Above Ground Stories
  StripMall;                              !- Standards Building Type

OS:LifeCycleCost:Parameters,
  {231cf8a0-f0e7-4251-a99f-11f0d464e661}, !- Handle
  FEMP,                                   !- Analysis Type
  ,                                       !- Discounting Convention
  ,                                       !- Inflation Approach
  ,                                       !- Real Discount Rate
  ,                                       !- Nominal Discount Rate
  ,                                       !- Inflation
  ,                                       !- Base Date Month
  ,                                       !- Base Date Year
  ,                                       !- Service Date Month
  ,                                       !- Service Date Year
  ,                                       !- Length of Study Period in Years
  ,                                       !- Tax Rate
  ,                                       !- Depreciation Method
  Yes;                                    !- Use NIST Fuel Escalation Rates

OS:Facility,
  {3ba8e45b-b833-44eb-a723-ea6c3946dc96}; !- Handle

OS:SpaceType,
  {287ee868-8af8-4586-baea-0960e7a78119}, !- Handle
  StripMall|WholeBuilding|DOE Ref 2004|ASHRAE 169-2006-5A, !- Name
  {effef698-635e-4dd3-bdca-a0863913fa0c}, !- Default Construction Set Name
  {ac9bf5ac-67b9-4006-9a77-fbf2e44c43f5}, !- Default Schedule Set Name
  {bb17df7c-8e4c-4f19-a0a1-7355025a18f1}, !- Group Rendering Name
  {a6441227-cd66-48e8-b216-c5ac5e4d5255}, !- Design Specification Outdoor Air Object Name
  StripMall,                              !- Standards Building Type
  WholeBuilding;                          !- Standards Space Type

OS:Rendering:Color,
  {bb17df7c-8e4c-4f19-a0a1-7355025a18f1}, !- Handle
  Rendering Color 1,                      !- Name
  171,                                    !- Rendering Red Value
  222,                                    !- Rendering Green Value
  78;                                     !- Rendering Blue Value

OS:Schedule:Ruleset,
  {b085d072-1164-4cb0-b731-af66855c4c53}, !- Handle
  0700|2100|StripMall|default|hoo,        !- Name
  {d2ea1712-b472-4209-b6a3-095efcc1f9b1}, !- Schedule Type Limits Name
  {64ea73fd-6398-427d-95fb-96a4743fb52c}, !- Default Day Schedule Name
  {9e0aa00e-a922-4ac9-8b62-0f2b95835472}, !- Summer Design Day Schedule Name
  {92bd66ab-f85f-4378-98d6-0ef7447c5f48}; !- Winter Design Day Schedule Name

OS:Schedule:Day,
  {64ea73fd-6398-427d-95fb-96a4743fb52c}, !- Handle
  0700|2100|StripMall|default|hoo Schedule Week Day, !- Name
  {d2ea1712-b472-4209-b6a3-095efcc1f9b1}, !- Schedule Type Limits Name
  ,                                       !- Interpolate to Timestep
  7,                                      !- Hour 1
  0,                                      !- Minute 1
  0,                                      !- Value Until Time 1
  21,                                     !- Hour 2
  0,                                      !- Minute 2
  1,                                      !- Value Until Time 2
  24,                                     !- Hour 3
  0,                                      !- Minute 3
  0;                                      !- Value Until Time 3

OS:Schedule:Day,
  {1f43dffc-a649-43dc-a6ea-3b63c1d32112}, !- Handle
  Schedule Day 2,                         !- Name
  ,                                       !- Schedule Type Limits Name
  ,                                       !- Interpolate to Timestep
  24,                                     !- Hour 1
  0,                                      !- Minute 1
  0;                                      !- Value Until Time 1

OS:Schedule:Day,
  {92bd66ab-f85f-4378-98d6-0ef7447c5f48}, !- Handle
  0700|2100|StripMall|default|hoo Winter Design Day, !- Name
  {d2ea1712-b472-4209-b6a3-095efcc1f9b1}, !- Schedule Type Limits Name
  ,                                       !- Interpolate to Timestep
  24,                                     !- Hour 1
  0,                                      !- Minute 1
  0;                                      !- Value Until Time 1

OS:Schedule:Day,
  {9f1c020e-79e1-47b4-9991-ab4f41772b81}, !- Handle
  Schedule Day 3,                         !- Name
  ,                                       !- Schedule Type Limits Name
  ,                                       !- Interpolate to Timestep
  24,                                     !- Hour 1
  0,                                      !- Minute 1
  0;                                      !- Value Until Time 1

OS:Schedule:Day,
  {9e0aa00e-a922-4ac9-8b62-0f2b95835472}, !- Handle
  0700|2100|StripMall|default|hoo Summer Design Day, !- Name
  {d2ea1712-b472-4209-b6a3-095efcc1f9b1}, !- Schedule Type Limits Name
  ,                                       !- Interpolate to Timestep
  24,                                     !- Hour 1
  0,                                      !- Minute 1
  1;                                      !- Value Until Time 1

OS:DefaultScheduleSet,
  {438fbc01-e3a7-4d11-9e75-3c714fe998ac}, !- Handle
  Building Hours of Operation,            !- Name
  {b085d072-1164-4cb0-b731-af66855c4c53}, !- Hours of Operation Schedule Name
  ,                                       !- Number of People Schedule Name
  ,                                       !- People Activity Level Schedule Name
  ,                                       !- Lighting Schedule Name
  ,                                       !- Electric Equipment Schedule Name
  ,                                       !- Gas Equipment Schedule Name
  ,                                       !- Hot Water Equipment Schedule Name
  ,                                       !- Infiltration Schedule Name
  ,                                       !- Steam Equipment Schedule Name
  ;                                       !- Other Equipment Schedule Name

OS:ScheduleTypeLimits,
  {d2ea1712-b472-4209-b6a3-095efcc1f9b1}, !- Handle
  OnOff,                                  !- Name
  0,                                      !- Lower Limit Value {BasedOnField A4}
  1,                                      !- Upper Limit Value {BasedOnField A4}
  Discrete,                               !- Numeric Type
  Availability;                           !- Unit Type

OS:Schedule:Ruleset,
  {fba9eccf-96f7-405f-a3d7-dbd0ae0b4848}, !- Handle
  0700|2100|StripMall|default|thermal_ctrl, !- Name
  {379e4eb7-5688-4ccc-8ebb-a39a682ba316}, !- Schedule Type Limits Name
  {59464d72-cbda-4c08-a52b-9dccbfe890a4}, !- Default Day Schedule Name
  {107942fa-5b91-428b-bd58-9ba6e750c506}, !- Summer Design Day Schedule Name
  {1549a1d8-1fe6-47e5-aae5-2fedcf1700ff}; !- Winter Design Day Schedule Name

OS:ScheduleTypeLimits,
  {379e4eb7-5688-4ccc-8ebb-a39a682ba316}, !- Handle
  Dimensionless Schedule Type Limits,     !- Name
  ,                                       !- Lower Limit Value {BasedOnField A4}
  ,                                       !- Upper Limit Value {BasedOnField A4}
  Continuous,                             !- Numeric Type
  Dimensionless;                          !- Unit Type

OS:Schedule:Day,
  {59464d72-cbda-4c08-a52b-9dccbfe890a4}, !- Handle
  0700|2100|StripMall|default|thermal_ctrl |default, !- Name
  {379e4eb7-5688-4ccc-8ebb-a39a682ba316}, !- Schedule Type Limits Name
  ,                                       !- Interpolate to Timestep
  24,                                     !- Hour 1
  0,                                      !- Minute 1
  4;                                      !- Value Until Time 1

OS:Schedule:Day,
  {107942fa-5b91-428b-bd58-9ba6e750c506}, !- Handle
  0700|2100|StripMall|default|thermal_ctrl Summer Design Day, !- Name
  {379e4eb7-5688-4ccc-8ebb-a39a682ba316}, !- Schedule Type Limits Name
  ,                                       !- Interpolate to Timestep
  24,                                     !- Hour 1
  0,                                      !- Minute 1
  4;                                      !- Value Until Time 1

OS:Schedule:Day,
  {1549a1d8-1fe6-47e5-aae5-2fedcf1700ff}, !- Handle
  0700|2100|StripMall|default|thermal_ctrl Winter Design Day, !- Name
  {379e4eb7-5688-4ccc-8ebb-a39a682ba316}, !- Schedule Type Limits Name
  ,                                       !- Interpolate to Timestep
  24,                                     !- Hour 1
  0,                                      !- Minute 1
  4;                                      !- Value Until Time 1

OS:Schedule:Ruleset,
  {c9823c0d-c7c3-4a7d-acc1-4a7110f74abc}, !- Handle
  0700|2100|StripMall|default|elec_equip, !- Name
  {a8ce9a3c-dcd8-42d8-b6e6-18946fb60249}, !- Schedule Type Limits Name
  {f44d2051-ca5d-41c7-affa-aa2a067857a4}, !- Default Day Schedule Name
  {3170dd96-a06f-4998-b8e0-5e29ea9beae1}, !- Summer Design Day Schedule Name
  {f7e0e8e6-209b-4aac-b198-6fd0f52bafb5}; !- Winter Design Day Schedule Name

OS:ScheduleTypeLimits,
  {a8ce9a3c-dcd8-42d8-b6e6-18946fb60249}, !- Handle
  Equipment Schedule Type Limits,         !- Name
  0,                                      !- Lower Limit Value {BasedOnField A4}
  1,                                      !- Upper Limit Value {BasedOnField A4}
  Continuous,                             !- Numeric Type
  Dimensionless;                          !- Unit Type

OS:Schedule:Day,
  {f44d2051-ca5d-41c7-affa-aa2a067857a4}, !- Handle
  0700|2100|StripMall|default|elec_equip |default, !- Name
  {a8ce9a3c-dcd8-42d8-b6e6-18946fb60249}, !- Schedule Type Limits Name
  ,                                       !- Interpolate to Timestep
  7,                                      !- Hour 1
  0,                                      !- Minute 1
  0.2,                                    !- Value Until Time 1
  8,                                      !- Hour 2
  0,                                      !- Minute 2
  0.4,                                    !- Value Until Time 2
  9,                                      !- Hour 3
  0,                                      !- Minute 3
  0.7,                                    !- Value Until Time 3
  18,                                     !- Hour 4
  0,                                      !- Minute 4
  0.9,                                    !- Value Until Time 4
  20,                                     !- Hour 5
  0,                                      !- Minute 5
  0.8,                                    !- Value Until Time 5
  21,                                     !- Hour 6
  0,                                      !- Minute 6
  0.7,                                    !- Value Until Time 6
  22,                                     !- Hour 7
  0,                                      !- Minute 7
  0.4,                                    !- Value Until Time 7
  24,                                     !- Hour 8
  0,                                      !- Minute 8
  0.2;                                    !- Value Until Time 8

OS:Schedule:Day,
  {3170dd96-a06f-4998-b8e0-5e29ea9beae1}, !- Handle
  0700|2100|StripMall|default|elec_equip Summer Design Day, !- Name
  {a8ce9a3c-dcd8-42d8-b6e6-18946fb60249}, !- Schedule Type Limits Name
  ,                                       !- Interpolate to Timestep
  7,                                      !- Hour 1
  0,                                      !- Minute 1
  0.2,                                    !- Value Until Time 1
  22,                                     !- Hour 2
  0,                                      !- Minute 2
  1,                                      !- Value Until Time 2
  24,                                     !- Hour 3
  0,                                      !- Minute 3
  0.2;                                    !- Value Until Time 3

OS:Schedule:Day,
  {f7e0e8e6-209b-4aac-b198-6fd0f52bafb5}, !- Handle
  0700|2100|StripMall|default|elec_equip Winter Design Day, !- Name
  {a8ce9a3c-dcd8-42d8-b6e6-18946fb60249}, !- Schedule Type Limits Name
  ,                                       !- Interpolate to Timestep
  24,                                     !- Hour 1
  0,                                      !- Minute 1
  0.2;                                    !- Value Until Time 1

OS:Schedule:Rule,
  {5becc59e-7ed9-4d6b-afb8-ca2dbb0917dd}, !- Handle
  0700|2100|StripMall|default|elec_equip |1/1-12/31|Sat Rule, !- Name
  {c9823c0d-c7c3-4a7d-acc1-4a7110f74abc}, !- Schedule Ruleset Name
  0,                                      !- Rule Order
  {d7956901-f490-49ce-b9d8-b5f3bcd9c42e}, !- Day Schedule Name
  ,                                       !- Apply Sunday
  ,                                       !- Apply Monday
  ,                                       !- Apply Tuesday
  ,                                       !- Apply Wednesday
  ,                                       !- Apply Thursday
  ,                                       !- Apply Friday
  Yes,                                    !- Apply Saturday
  ,                                       !- Apply Holiday
  DateRange,                              !- Date Specification Type
  1,                                      !- Start Month
  1,                                      !- Start Day
  12,                                     !- End Month
  31;                                     !- End Day

OS:Schedule:Day,
  {d7956901-f490-49ce-b9d8-b5f3bcd9c42e}, !- Handle
  0700|2100|StripMall|default|elec_equip |1/1-12/31|Sat, !- Name
  {a8ce9a3c-dcd8-42d8-b6e6-18946fb60249}, !- Schedule Type Limits Name
  ,                                       !- Interpolate to Timestep
  7,                                      !- Hour 1
  0,                                      !- Minute 1
  0.15,                                   !- Value Until Time 1
  8,                                      !- Hour 2
  0,                                      !- Minute 2
  0.3,                                    !- Value Until Time 2
  9,                                      !- Hour 3
  0,                                      !- Minute 3
  0.5,                                    !- Value Until Time 3
  10,                                     !- Hour 4
  0,                                      !- Minute 4
  0.8,                                    !- Value Until Time 4
  18,                                     !- Hour 5
  0,                                      !- Minute 5
  0.9,                                    !- Value Until Time 5
  19,                                     !- Hour 6
  0,                                      !- Minute 6
  0.7,                                    !- Value Until Time 6
  21,                                     !- Hour 7
  0,                                      !- Minute 7
  0.5,                                    !- Value Until Time 7
  22,                                     !- Hour 8
  0,                                      !- Minute 8
  0.3,                                    !- Value Until Time 8
  24,                                     !- Hour 9
  0,                                      !- Minute 9
  0.15;                                   !- Value Until Time 9

OS:Schedule:Rule,
  {ecb162a7-1ac7-4a50-a1c5-c6aaab46739c}, !- Handle
  0700|2100|StripMall|default|elec_equip |1/1-12/31|Sun Rule, !- Name
  {c9823c0d-c7c3-4a7d-acc1-4a7110f74abc}, !- Schedule Ruleset Name
  1,                                      !- Rule Order
  {b329c6dc-2894-45a9-b37c-f02900520113}, !- Day Schedule Name
  Yes,                                    !- Apply Sunday
  ,                                       !- Apply Monday
  ,                                       !- Apply Tuesday
  ,                                       !- Apply Wednesday
  ,                                       !- Apply Thursday
  ,                                       !- Apply Friday
  ,                                       !- Apply Saturday
  ,                                       !- Apply Holiday
  DateRange,                              !- Date Specification Type
  1,                                      !- Start Month
  1,                                      !- Start Day
  12,                                     !- End Month
  31;                                     !- End Day

OS:Schedule:Day,
  {b329c6dc-2894-45a9-b37c-f02900520113}, !- Handle
  0700|2100|StripMall|default|elec_equip |1/1-12/31|Sun, !- Name
  {a8ce9a3c-dcd8-42d8-b6e6-18946fb60249}, !- Schedule Type Limits Name
  ,                                       !- Interpolate to Timestep
  8,                                      !- Hour 1
  0,                                      !- Minute 1
  0.15,                                   !- Value Until Time 1
  10,                                     !- Hour 2
  0,                                      !- Minute 2
  0.3,                                    !- Value Until Time 2
  12,                                     !- Hour 3
  0,                                      !- Minute 3
  0.6,                                    !- Value Until Time 3
  17,                                     !- Hour 4
  0,                                      !- Minute 4
  0.8,                                    !- Value Until Time 4
  18,                                     !- Hour 5
  0,                                      !- Minute 5
  0.6,                                    !- Value Until Time 5
  19,                                     !- Hour 6
  0,                                      !- Minute 6
  0.4,                                    !- Value Until Time 6
  24,                                     !- Hour 7
  0,                                      !- Minute 7
  0.15;                                   !- Value Until Time 7

OS:Schedule:Ruleset,
  {d65290e3-8d5b-4209-ad5d-59077cca28b4}, !- Handle
  0700|2100|StripMall|default|htg_setpoint, !- Name
  {de267d25-d452-4eb8-a6b3-1c6cef33652e}, !- Schedule Type Limits Name
  {9e7d9ffd-0690-4f16-b2d6-52c6834fbf66}, !- Default Day Schedule Name
  {c384afd5-697f-43a1-bb30-690c432c63ed}, !- Summer Design Day Schedule Name
  {fd4a84c0-09b8-4f9a-9542-8636fe134f4c}; !- Winter Design Day Schedule Name

OS:ScheduleTypeLimits,
  {de267d25-d452-4eb8-a6b3-1c6cef33652e}, !- Handle
  Thermostat Heating Setpoint Schedule Type Limits, !- Name
  0,                                      !- Lower Limit Value {BasedOnField A4}
  100,                                    !- Upper Limit Value {BasedOnField A4}
  Continuous,                             !- Numeric Type
  Temperature;                            !- Unit Type

OS:Schedule:Day,
  {9e7d9ffd-0690-4f16-b2d6-52c6834fbf66}, !- Handle
  0700|2100|StripMall|default|htg_setpoint |default, !- Name
  {de267d25-d452-4eb8-a6b3-1c6cef33652e}, !- Schedule Type Limits Name
  ,                                       !- Interpolate to Timestep
  24,                                     !- Hour 1
  0,                                      !- Minute 1
  21.0000000000001;                       !- Value Until Time 1

OS:Schedule:Day,
  {c384afd5-697f-43a1-bb30-690c432c63ed}, !- Handle
  0700|2100|StripMall|default|htg_setpoint Summer Design Day, !- Name
  {de267d25-d452-4eb8-a6b3-1c6cef33652e}, !- Schedule Type Limits Name
  ,                                       !- Interpolate to Timestep
  24,                                     !- Hour 1
  0,                                      !- Minute 1
  21.0000000000001;                       !- Value Until Time 1

OS:Schedule:Day,
  {fd4a84c0-09b8-4f9a-9542-8636fe134f4c}, !- Handle
  0700|2100|StripMall|default|htg_setpoint Winter Design Day, !- Name
  {de267d25-d452-4eb8-a6b3-1c6cef33652e}, !- Schedule Type Limits Name
  ,                                       !- Interpolate to Timestep
  24,                                     !- Hour 1
  0,                                      !- Minute 1
  21.0000000000001;                       !- Value Until Time 1

OS:Schedule:Rule,
  {008a1847-0246-4f3e-ae04-e5501d71207f}, !- Handle
  0700|2100|StripMall|default|htg_setpoint |1/1-12/31|Sat Rule, !- Name
  {d65290e3-8d5b-4209-ad5d-59077cca28b4}, !- Schedule Ruleset Name
  0,                                      !- Rule Order
  {052169ad-02b1-4b77-aaa4-7d5e2e82ce12}, !- Day Schedule Name
  ,                                       !- Apply Sunday
  ,                                       !- Apply Monday
  ,                                       !- Apply Tuesday
  ,                                       !- Apply Wednesday
  ,                                       !- Apply Thursday
  ,                                       !- Apply Friday
  Yes,                                    !- Apply Saturday
  ,                                       !- Apply Holiday
  DateRange,                              !- Date Specification Type
  1,                                      !- Start Month
  1,                                      !- Start Day
  12,                                     !- End Month
  31;                                     !- End Day

OS:Schedule:Day,
  {052169ad-02b1-4b77-aaa4-7d5e2e82ce12}, !- Handle
  0700|2100|StripMall|default|htg_setpoint |1/1-12/31|Sat, !- Name
  {de267d25-d452-4eb8-a6b3-1c6cef33652e}, !- Schedule Type Limits Name
  ,                                       !- Interpolate to Timestep
  24,                                     !- Hour 1
  0,                                      !- Minute 1
  21.0000000000001;                       !- Value Until Time 1

OS:Schedule:Rule,
  {0bdee385-bb79-4f3e-af5b-8cf5e86f532f}, !- Handle
  0700|2100|StripMall|default|htg_setpoint |1/1-12/31|Sun Rule, !- Name
  {d65290e3-8d5b-4209-ad5d-59077cca28b4}, !- Schedule Ruleset Name
  1,                                      !- Rule Order
  {935c71e9-ce71-498c-ac0f-bf38f08f22f5}, !- Day Schedule Name
  Yes,                                    !- Apply Sunday
  ,                                       !- Apply Monday
  ,                                       !- Apply Tuesday
  ,                                       !- Apply Wednesday
  ,                                       !- Apply Thursday
  ,                                       !- Apply Friday
  ,                                       !- Apply Saturday
  ,                                       !- Apply Holiday
  DateRange,                              !- Date Specification Type
  1,                                      !- Start Month
  1,                                      !- Start Day
  12,                                     !- End Month
  31;                                     !- End Day

OS:Schedule:Day,
  {935c71e9-ce71-498c-ac0f-bf38f08f22f5}, !- Handle
  0700|2100|StripMall|default|htg_setpoint |1/1-12/31|Sun, !- Name
  {de267d25-d452-4eb8-a6b3-1c6cef33652e}, !- Schedule Type Limits Name
  ,                                       !- Interpolate to Timestep
  24,                                     !- Hour 1
  0,                                      !- Minute 1
  21.0000000000001;                       !- Value Until Time 1

OS:Schedule:Ruleset,
  {9c47caa3-22b5-43e0-9b01-02c1f182adad}, !- Handle
  0700|2100|StripMall|default|rh,         !- Name
  {379e4eb7-5688-4ccc-8ebb-a39a682ba316}, !- Schedule Type Limits Name
  {8bf4e7fe-0f93-4ddd-8acc-b5d7a75270ce}, !- Default Day Schedule Name
  {6facc05f-44e5-4a31-a815-46830f027140}, !- Summer Design Day Schedule Name
  {d9c92729-096f-47f5-a611-3b7d0cd6644f}; !- Winter Design Day Schedule Name

OS:Schedule:Day,
  {8bf4e7fe-0f93-4ddd-8acc-b5d7a75270ce}, !- Handle
  0700|2100|StripMall|default|rh |default, !- Name
  {379e4eb7-5688-4ccc-8ebb-a39a682ba316}, !- Schedule Type Limits Name
  ,                                       !- Interpolate to Timestep
  24,                                     !- Hour 1
  0,                                      !- Minute 1
  50;                                     !- Value Until Time 1

OS:Schedule:Day,
  {6facc05f-44e5-4a31-a815-46830f027140}, !- Handle
  0700|2100|StripMall|default|rh Summer Design Day, !- Name