
OS:Version,
  {e312d157-21ca-48a0-9e6d-3123d31a62d6}, !- Handle
  1.5.5;                                  !- Version Identifier

OS:ClimateZones,
  {135edfab-17e7-40db-a436-27d385a8cd6d}, !- Handle
  ,                                       !- Active Institution
  ,                                       !- Active Year
  ASHRAE,                                 !- Climate Zone Institution Name 1
  ANSI/ASHRAE Standard 169,               !- Climate Zone Document Name 1
  2006,                                   !- Climate Zone Document Year 1
  ,                                       !- Climate Zone Value 1
  CEC,                                    !- Climate Zone Institution Name 2
  California Climate Zone Descriptions,   !- Climate Zone Document Name 2
  1995,                                   !- Climate Zone Document Year 2
  ;                                       !- Climate Zone Value 2

OS:YearDescription,
  {513d8dda-86cb-442a-b01c-1f7f0e0ac70e}; !- Handle

OS:RadianceParameters,
  {270a96f1-3c86-4b75-a667-cdf22790e2c8}, !- Handle
  1,                                      !- Accumulated Rays per Record
  0,                                      !- Direct Threshold
  1,                                      !- Direct Certainty
  1,                                      !- Direct Jitter
  1,                                      !- Direct Pretest
  6,                                      !- Ambient Bounces VMX
  2,                                      !- Ambient Bounces DMX
  4050,                                   !- Ambient Divisions VMX
  512,                                    !- Ambient Divisions DMX
  256,                                    !- Ambient Supersamples
  0.001,                                  !- Limit Weight VMX
  0.001,                                  !- Limit Weight DMX
  500,                                    !- Klems Sampling Density
  146;                                    !- Sky Discretization Resolution

OS:SimulationControl,
  {2c487a4c-bac9-4ac5-b669-1e49d9da7c2b}, !- Handle
  ,                                       !- Do Zone Sizing Calculation
  ,                                       !- Do System Sizing Calculation
  ,                                       !- Do Plant Sizing Calculation
  No,                                     !- Run Simulation for Sizing Periods
  ,                                       !- Run Simulation for Weather File Run Periods
  0.04,                                   !- Loads Convergence Tolerance Value
  ,                                       !- Temperature Convergence Tolerance Value {deltaC}
  ,                                       !- Solar Distribution
  ,                                       !- Maximum Number of Warmup Days
  2;                                      !- Minimum Number of Warmup Days

OS:Sizing:Parameters,
  {dde5af6f-7923-4600-a28a-7556673a0266}, !- Handle
  1.25,                                   !- Heating Sizing Factor
  1.15;                                   !- Cooling Sizing Factor

OS:ProgramControl,
  {05027a99-f2b3-4aeb-afc6-1425fbb4371d}; !- Handle

OS:Timestep,
  {4ebc9f1e-4707-402e-9844-67eb1ffbd522}, !- Handle
  2;                                      !- Number of Timesteps per Hour

OS:OutputControl:ReportingTolerances,
  {65797aa2-06a9-45fe-b69d-bc6e060399d3}; !- Handle

OS:ConvergenceLimits,
  {9fc11aba-8822-4f3d-970c-46391ba4040d}; !- Handle

OS:ShadowCalculation,
  {ca758bea-4416-4626-9bba-3d8795c79bd6}, !- Handle
  7,                                      !- Calculation Frequency
  15000;                                  !- Maximum Figures in Shadow Overlap Calculations

OS:SurfaceConvectionAlgorithm:Inside,
  {aaabfc36-718a-4ab0-b622-f186ebb45230}, !- Handle
  TARP;                                   !- Algorithm

OS:SurfaceConvectionAlgorithm:Outside,
  {9a0a9f6f-4bbd-4b12-a121-9492a1fcd7d6}, !- Handle
  DOE-2;                                  !- Algorithm

OS:HeatBalanceAlgorithm,
  {9d93e563-e1e0-46d7-9e39-d1c8aceb7212}, !- Handle
  ConductionTransferFunction,             !- Algorithm
  200;                                    !- Surface Temperature Upper Limit {F}

OS:ZoneAirHeatBalanceAlgorithm,
  {8520d93e-310f-4696-9bcd-36228bfdd743}, !- Handle
  AnalyticalSolution;                     !- Algorithm

OS:ZoneAirContaminantBalance,
  {eb5fc3ae-fb22-4160-8fcb-3e3b22b000d3}; !- Handle

OS:ZoneCapacitanceMultiplier:ResearchSpecial,
  {4020ce4f-5a7a-4849-8028-8305d7b751b1}, !- Handle
  ,                                       !- Temperature Capacity Multiplier
  ,                                       !- Humidity Capacity Multiplier
  ;                                       !- Carbon Dioxide Capacity Multiplier

OS:RunPeriod,
  {28df894d-6af9-4fb8-8f56-df1753344aa3}, !- Handle
  Run Period 1,                           !- Name
  1,                                      !- Begin Month
  1,                                      !- Begin Day of Month
  12,                                     !- End Month
  31,                                     !- End Day of Month
  ,                                       !- Use Weather File Holidays and Special Days
  ,                                       !- Use Weather File Daylight Saving Period
  ,                                       !- Apply Weekend Holiday Rule
  ,                                       !- Use Weather File Rain Indicators
  ,                                       !- Use Weather File Snow Indicators
  ;                                       !- Number of Times Runperiod to be Repeated

OS:Building,
  {bf305633-c5a1-4881-9edf-ca5e1a8e1274}, !- Handle
  Building 1,                             !- Name
  ,                                       !- Building Sector Type
  ,                                       !- North Axis {deg}
  ,                                       !- Nominal Floor to Floor Height {m}
  ,                                       !- Space Type Name
  ,                                       !- Default Construction Set Name
  {8ed3d4c8-bb5d-462e-8b73-a3398bf6b1ad}, !- Default Schedule Set Name
  ,                                       !- Standards Number of Stories
  ,                                       !- Standards Number of Above Ground Stories
  StripMall;                              !- Standards Building Type

OS:LifeCycleCost:Parameters,
  {231cf8a0-f0e7-4251-a99f-11f0d464e661}, !- Handle
  FEMP,                                   !- Analysis Type
  ,                                       !- Discounting Convention
  ,                                       !- Inflation Approach
  ,                                       !- Real Discount Rate
  ,                                       !- Nominal Discount Rate
  ,                                       !- Inflation
  ,                                       !- Base Date Month
  ,                                       !- Base Date Year
  ,                                       !- Service Date Month
  ,                                       !- Service Date Year
  ,                                       !- Length of Study Period in Years
  ,                                       !- Tax Rate
  ,                                       !- Depreciation Method
  Yes;                                    !- Use NIST Fuel Escalation Rates

OS:Facility,
  {3ba8e45b-b833-44eb-a723-ea6c3946dc96}; !- Handle

OS:SpaceType,
  {221f800f-5286-4393-80d0-036bb9cc30ee}, !- Handle
  StripMall|WholeBuilding|DOE Ref Pre-1980|ASHRAE 169-2006-5A, !- Name
  {2e568658-b9e4-4b81-bd15-28884f766cda}, !- Default Construction Set Name
  {4696a03c-15d5-4daa-aef4-3d53ee5c73e4}, !- Default Schedule Set Name
  {08880e2a-f8f9-4b71-9b22-0580d507ff32}, !- Group Rendering Name
  {05fb754d-e4fe-4c9e-b46b-6ddb9e6a298b}, !- Design Specification Outdoor Air Object Name
  StripMall,                              !- Standards Building Type
  WholeBuilding;                          !- Standards Space Type

OS:Rendering:Color,
  {08880e2a-f8f9-4b71-9b22-0580d507ff32}, !- Handle
  Rendering Color 1,                      !- Name
  171,                                    !- Rendering Red Value
  222,                                    !- Rendering Green Value
  78;                                     !- Rendering Blue Value

OS:Schedule:Ruleset,
  {63a7f231-c469-4fd1-8cfd-aa5590df9fc6}, !- Handle
  0700|2100|StripMall|default|hoo,        !- Name
  {52c542b8-c7fd-4a21-8ebc-4c626640572d}, !- Schedule Type Limits Name
  {d4174a42-67ce-4bbf-85d1-e9562867476c}, !- Default Day Schedule Name
  {748f8a66-c706-4d6e-b343-606a3d16ecb9}, !- Summer Design Day Schedule Name
  {b758a518-4aee-4fc9-a5f9-938bb67988dc}; !- Winter Design Day Schedule Name

OS:Schedule:Day,
  {d4174a42-67ce-4bbf-85d1-e9562867476c}, !- Handle
  0700|2100|StripMall|default|hoo Schedule Week Day, !- Name
  {52c542b8-c7fd-4a21-8ebc-4c626640572d}, !- Schedule Type Limits Name
  ,                                       !- Interpolate to Timestep
  7,                                      !- Hour 1
  0,                                      !- Minute 1
  0,                                      !- Value Until Time 1
  21,                                     !- Hour 2
  0,                                      !- Minute 2
  1,                                      !- Value Until Time 2
  24,                                     !- Hour 3
  0,                                      !- Minute 3
  0;                                      !- Value Until Time 3

OS:Schedule:Day,
  {91230c96-067e-4c81-8fb9-f5c6c0b84479}, !- Handle
  Schedule Day 2,                         !- Name
  ,                                       !- Schedule Type Limits Name
  ,                                       !- Interpolate to Timestep
  24,                                     !- Hour 1
  0,                                      !- Minute 1
  0;                                      !- Value Until Time 1

OS:Schedule:Day,
  {b758a518-4aee-4fc9-a5f9-938bb67988dc}, !- Handle
  0700|2100|StripMall|default|hoo Winter Design Day, !- Name
  {52c542b8-c7fd-4a21-8ebc-4c626640572d}, !- Schedule Type Limits Name
  ,                                       !- Interpolate to Timestep
  24,                                     !- Hour 1
  0,                                      !- Minute 1
  0;                                      !- Value Until Time 1

OS:Schedule:Day,
  {1d3a382a-b4a8-44a4-9c96-64a25a30513f}, !- Handle
  Schedule Day 3,                         !- Name
  ,                                       !- Schedule Type Limits Name
  ,                                       !- Interpolate to Timestep
  24,                                     !- Hour 1
  0,                                      !- Minute 1
  0;                                      !- Value Until Time 1

OS:Schedule:Day,
  {748f8a66-c706-4d6e-b343-606a3d16ecb9}, !- Handle
  0700|2100|StripMall|default|hoo Summer Design Day, !- Name
  {52c542b8-c7fd-4a21-8ebc-4c626640572d}, !- Schedule Type Limits Name
  ,                                       !- Interpolate to Timestep
  24,                                     !- Hour 1
  0,                                      !- Minute 1
  1;                                      !- Value Until Time 1

OS:DefaultScheduleSet,
  {8ed3d4c8-bb5d-462e-8b73-a3398bf6b1ad}, !- Handle
  Building Hours of Operation,            !- Name
  {63a7f231-c469-4fd1-8cfd-aa5590df9fc6}, !- Hours of Operation Schedule Name
  ,                                       !- Number of People Schedule Name
  ,                                       !- People Activity Level Schedule Name
  ,                                       !- Lighting Schedule Name
  ,                                       !- Electric Equipment Schedule Name
  ,                                       !- Gas Equipment Schedule Name
  ,                                       !- Hot Water Equipment Schedule Name
  ,                                       !- Infiltration Schedule Name
  ,                                       !- Steam Equipment Schedule Name
  ;                                       !- Other Equipment Schedule Name

OS:ScheduleTypeLimits,
  {52c542b8-c7fd-4a21-8ebc-4c626640572d}, !- Handle
  OnOff,                                  !- Name
  0,                                      !- Lower Limit Value {BasedOnField A4}
  1,                                      !- Upper Limit Value {BasedOnField A4}
  Discrete,                               !- Numeric Type
  Availability;                           !- Unit Type

OS:Schedule:Ruleset,
  {4b775713-af9c-4202-8897-6cf281d8d800}, !- Handle
  0700|2100|StripMall|default|thermal_ctrl, !- Name
  {0e25863d-8b63-40ad-a572-9d4ffb222665}, !- Schedule Type Limits Name
  {28a2cfc8-210d-4fb1-83e6-e9db49c7b581}, !- Default Day Schedule Name
  {7973390e-1533-427a-be51-a29c9b608afe}, !- Summer Design Day Schedule Name
  {e02dce6d-6edf-4fa5-8761-dde21a568e8d}; !- Winter Design Day Schedule Name

OS:ScheduleTypeLimits,
  {0e25863d-8b63-40ad-a572-9d4ffb222665}, !- Handle
  Dimensionless Schedule Type Limits,     !- Name
  ,                                       !- Lower Limit Value {BasedOnField A4}
  ,                                       !- Upper Limit Value {BasedOnField A4}
  Continuous,                             !- Numeric Type
  Dimensionless;                          !- Unit Type

OS:Schedule:Day,
  {28a2cfc8-210d-4fb1-83e6-e9db49c7b581}, !- Handle
  0700|2100|StripMall|default|thermal_ctrl |default, !- Name
  {0e25863d-8b63-40ad-a572-9d4ffb222665}, !- Schedule Type Limits Name
  ,                                       !- Interpolate to Timestep
  24,                                     !- Hour 1
  0,                                      !- Minute 1
  4;                                      !- Value Until Time 1

OS:Schedule:Day,
  {7973390e-1533-427a-be51-a29c9b608afe}, !- Handle
  0700|2100|StripMall|default|thermal_ctrl Summer Design Day, !- Name
  {0e25863d-8b63-40ad-a572-9d4ffb222665}, !- Schedule Type Limits Name
  ,                                       !- Interpolate to Timestep
  24,                                     !- Hour 1
  0,                                      !- Minute 1
  4;                                      !- Value Until Time 1

OS:Schedule:Day,
  {e02dce6d-6edf-4fa5-8761-dde21a568e8d}, !- Handle
  0700|2100|StripMall|default|thermal_ctrl Winter Design Day, !- Name
  {0e25863d-8b63-40ad-a572-9d4ffb222665}, !- Schedule Type Limits Name
  ,                                       !- Interpolate to Timestep
  24,                                     !- Hour 1
  0,                                      !- Minute 1
  4;                                      !- Value Until Time 1

OS:Schedule:Ruleset,
  {322ed432-d2d4-4676-b357-645511821757}, !- Handle
  0700|2100|StripMall|default|elec_equip, !- Name
  {55cb79ae-df8f-4aa5-93a9-d381c22d01f0}, !- Schedule Type Limits Name
  {00b11e89-9259-497d-b7a6-2de3c2ea526c}, !- Default Day Schedule Name
  {a4d4bb41-6fd7-44a3-b93c-e26915ba18fd}, !- Summer Design Day Schedule Name
  {73ae9ee5-796b-4b15-9393-f1ad43f3f1b1}; !- Winter Design Day Schedule Name

OS:ScheduleTypeLimits,
  {55cb79ae-df8f-4aa5-93a9-d381c22d01f0}, !- Handle
  Equipment Schedule Type Limits,         !- Name
  0,                                      !- Lower Limit Value {BasedOnField A4}
  1,                                      !- Upper Limit Value {BasedOnField A4}
  Continuous,                             !- Numeric Type
  Dimensionless;                          !- Unit Type

OS:Schedule:Day,
  {00b11e89-9259-497d-b7a6-2de3c2ea526c}, !- Handle
  0700|2100|StripMall|default|elec_equip |default, !- Name
  {55cb79ae-df8f-4aa5-93a9-d381c22d01f0}, !- Schedule Type Limits Name
  ,                                       !- Interpolate to Timestep
  7,                                      !- Hour 1
  0,                                      !- Minute 1
  0.2,                                    !- Value Until Time 1
  8,                                      !- Hour 2
  0,                                      !- Minute 2
  0.4,                                    !- Value Until Time 2
  9,                                      !- Hour 3
  0,                                      !- Minute 3
  0.7,                                    !- Value Until Time 3
  18,                                     !- Hour 4
  0,                                      !- Minute 4
  0.9,                                    !- Value Until Time 4
  20,                                     !- Hour 5
  0,                                      !- Minute 5
  0.8,                                    !- Value Until Time 5
  21,                                     !- Hour 6
  0,                                      !- Minute 6
  0.7,                                    !- Value Until Time 6
  22,                                     !- Hour 7
  0,                                      !- Minute 7
  0.4,                                    !- Value Until Time 7
  24,                                     !- Hour 8
  0,                                      !- Minute 8
  0.2;                                    !- Value Until Time 8

OS:Schedule:Day,
  {a4d4bb41-6fd7-44a3-b93c-e26915ba18fd}, !- Handle
  0700|2100|StripMall|default|elec_equip Summer Design Day, !- Name
  {55cb79ae-df8f-4aa5-93a9-d381c22d01f0}, !- Schedule Type Limits Name
  ,                                       !- Interpolate to Timestep
  7,                                      !- Hour 1
  0,                                      !- Minute 1
  0.2,                                    !- Value Until Time 1
  22,                                     !- Hour 2
  0,                                      !- Minute 2
  1,                                      !- Value Until Time 2
  24,                                     !- Hour 3
  0,                                      !- Minute 3
  0.2;                                    !- Value Until Time 3

OS:Schedule:Day,
  {73ae9ee5-796b-4b15-9393-f1ad43f3f1b1}, !- Handle
  0700|2100|StripMall|default|elec_equip Winter Design Day, !- Name
  {55cb79ae-df8f-4aa5-93a9-d381c22d01f0}, !- Schedule Type Limits Name
  ,                                       !- Interpolate to Timestep
  24,                                     !- Hour 1
  0,                                      !- Minute 1
  0.2;                                    !- Value Until Time 1

OS:Schedule:Rule,
  {beaf9b34-471e-4e2d-8c73-d97f978adee2}, !- Handle
  0700|2100|StripMall|default|elec_equip |1/1-12/31|Sat Rule, !- Name
  {322ed432-d2d4-4676-b357-645511821757}, !- Schedule Ruleset Name
  0,                                      !- Rule Order
  {748edcda-9db3-4e19-af2f-9d1aaa2c5446}, !- Day Schedule Name
  ,                                       !- Apply Sunday
  ,                                       !- Apply Monday
  ,                                       !- Apply Tuesday
  ,                                       !- Apply Wednesday
  ,                                       !- Apply Thursday
  ,                                       !- Apply Friday
  Yes,                                    !- Apply Saturday
  ,                                       !- Apply Holiday
  DateRange,                              !- Date Specification Type
  1,                                      !- Start Month
  1,                                      !- Start Day
  12,                                     !- End Month
  31;                                     !- End Day

OS:Schedule:Day,
  {748edcda-9db3-4e19-af2f-9d1aaa2c5446}, !- Handle
  0700|2100|StripMall|default|elec_equip |1/1-12/31|Sat, !- Name
  {55cb79ae-df8f-4aa5-93a9-d381c22d01f0}, !- Schedule Type Limits Name
  ,                                       !- Interpolate to Timestep
  7,                                      !- Hour 1
  0,                                      !- Minute 1
  0.15,                                   !- Value Until Time 1
  8,                                      !- Hour 2
  0,                                      !- Minute 2
  0.3,                                    !- Value Until Time 2
  9,                                      !- Hour 3
  0,                                      !- Minute 3
  0.5,                                    !- Value Until Time 3
  10,                                     !- Hour 4
  0,                                      !- Minute 4
  0.8,                                    !- Value Until Time 4
  18,                                     !- Hour 5
  0,                                      !- Minute 5
  0.9,                                    !- Value Until Time 5
  19,                                     !- Hour 6
  0,                                      !- Minute 6
  0.7,                                    !- Value Until Time 6
  21,                                     !- Hour 7
  0,                                      !- Minute 7
  0.5,                                    !- Value Until Time 7
  22,                                     !- Hour 8
  0,                                      !- Minute 8
  0.3,                                    !- Value Until Time 8
  24,                                     !- Hour 9
  0,                                      !- Minute 9
  0.15;                                   !- Value Until Time 9

OS:Schedule:Rule,
  {af8ee78a-50a7-4850-a2ab-b71454500f29}, !- Handle
  0700|2100|StripMall|default|elec_equip |1/1-12/31|Sun Rule, !- Name
  {322ed432-d2d4-4676-b357-645511821757}, !- Schedule Ruleset Name
  1,                                      !- Rule Order
  {1c49740b-9a9d-4175-ada5-eb70eb7106a2}, !- Day Schedule Name
  Yes,                                    !- Apply Sunday
  ,                                       !- Apply Monday
  ,                                       !- Apply Tuesday
  ,                                       !- Apply Wednesday
  ,                                       !- Apply Thursday
  ,                                       !- Apply Friday
  ,                                       !- Apply Saturday
  ,                                       !- Apply Holiday
  DateRange,                              !- Date Specification Type
  1,                                      !- Start Month
  1,                                      !- Start Day
  12,                                     !- End Month
  31;                                     !- End Day

OS:Schedule:Day,
  {1c49740b-9a9d-4175-ada5-eb70eb7106a2}, !- Handle
  0700|2100|StripMall|default|elec_equip |1/1-12/31|Sun, !- Name
  {55cb79ae-df8f-4aa5-93a9-d381c22d01f0}, !- Schedule Type Limits Name
  ,                                       !- Interpolate to Timestep
  8,                                      !- Hour 1
  0,                                      !- Minute 1
  0.15,                                   !- Value Until Time 1
  10,                                     !- Hour 2
  0,                                      !- Minute 2
  0.3,                                    !- Value Until Time 2
  12,                                     !- Hour 3
  0,                                      !- Minute 3
  0.6,                                    !- Value Until Time 3
  17,                                     !- Hour 4
  0,                                      !- Minute 4
  0.8,                                    !- Value Until Time 4
  18,                                     !- Hour 5
  0,                                      !- Minute 5
  0.6,                                    !- Value Until Time 5
  19,                                     !- Hour 6
  0,                                      !- Minute 6
  0.4,                                    !- Value Until Time 6
  24,                                     !- Hour 7
  0,                                      !- Minute 7
  0.15;                                   !- Value Until Time 7

OS:Schedule:Ruleset,
  {ff846dda-dd34-4280-9a47-92c836805c58}, !- Handle
  0700|2100|StripMall|default|htg_setpoint, !- Name
  {a63de57f-000c-4b60-ba79-c7349b118dc3}, !- Schedule Type Limits Name
  {37147904-384f-418f-82a5-583c4e3affff}, !- Default Day Schedule Name
  {5f5e4e8b-9cf2-45d9-a022-2af53553fd1c}, !- Summer Design Day Schedule Name
  {292fc7ec-f8e5-46fb-9873-e7cc424cb617}; !- Winter Design Day Schedule Name

OS:ScheduleTypeLimits,
  {a63de57f-000c-4b60-ba79-c7349b118dc3}, !- Handle
  Thermostat Heating Setpoint Schedule Type Limits, !- Name
  0,                                      !- Lower Limit Value {BasedOnField A4}
  100,                                    !- Upper Limit Value {BasedOnField A4}
  Continuous,                             !- Numeric Type
  Temperature;                            !- Unit Type

OS:Schedule:Day,
  {37147904-384f-418f-82a5-583c4e3affff}, !- Handle
  0700|2100|StripMall|default|htg_setpoint |default, !- Name
  {a63de57f-000c-4b60-ba79-c7349b118dc3}, !- Schedule Type Limits Name
  ,                                       !- Interpolate to Timestep
  24,                                     !- Hour 1
  0,                                      !- Minute 1
  21.0000000000001;                       !- Value Until Time 1

OS:Schedule:Day,
  {5f5e4e8b-9cf2-45d9-a022-2af53553fd1c}, !- Handle
  0700|2100|StripMall|default|htg_setpoint Summer Design Day, !- Name
  {a63de57f-000c-4b60-ba79-c7349b118dc3}, !- Schedule Type Limits Name
  ,                                       !- Interpolate to Timestep
  24,                                     !- Hour 1
  0,                                      !- Minute 1
  21.0000000000001;                       !- Value Until Time 1

OS:Schedule:Day,
  {292fc7ec-f8e5-46fb-9873-e7cc424cb617}, !- Handle
  0700|2100|StripMall|default|htg_setpoint Winter Design Day, !- Name
  {a63de57f-000c-4b60-ba79-c7349b118dc3}, !- Schedule Type Limits Name
  ,                                       !- Interpolate to Timestep
  24,                                     !- Hour 1
  0,                                      !- Minute 1
  21.0000000000001;                       !- Value Until Time 1

OS:Schedule:Rule,
  {231aedb7-36ef-47d3-9c81-0bdabbc4ea06}, !- Handle
  0700|2100|StripMall|default|htg_setpoint |1/1-12/31|Sat Rule, !- Name
  {ff846dda-dd34-4280-9a47-92c836805c58}, !- Schedule Ruleset Name
  0,                                      !- Rule Order
  {ad713698-1e93-4aae-b2b9-819c4c1b660d}, !- Day Schedule Name
  ,                                       !- Apply Sunday
  ,                                       !- Apply Monday
  ,                                       !- Apply Tuesday
  ,                                       !- Apply Wednesday
  ,                                       !- Apply Thursday
  ,                                       !- Apply Friday
  Yes,                                    !- Apply Saturday
  ,                                       !- Apply Holiday
  DateRange,                              !- Date Specification Type
  1,                                      !- Start Month
  1,                                      !- Start Day
  12,                                     !- End Month
  31;                                     !- End Day

OS:Schedule:Day,
  {ad713698-1e93-4aae-b2b9-819c4c1b660d}, !- Handle
  0700|2100|StripMall|default|htg_setpoint |1/1-12/31|Sat, !- Name
  {a63de57f-000c-4b60-ba79-c7349b118dc3}, !- Schedule Type Limits Name
  ,                                       !- Interpolate to Timestep
  24,                                     !- Hour 1
  0,                                      !- Minute 1
  21.0000000000001;                       !- Value Until Time 1

OS:Schedule:Rule,
  {e74ede81-35f8-4c01-bcd5-5da834667097}, !- Handle
  0700|2100|StripMall|default|htg_setpoint |1/1-12/31|Sun Rule, !- Name
  {ff846dda-dd34-4280-9a47-92c836805c58}, !- Schedule Ruleset Name
  1,                                      !- Rule Order
  {3ef68c7d-2c71-493f-b994-4c0433383e90}, !- Day Schedule Name
  Yes,                                    !- Apply Sunday
  ,                                       !- Apply Monday
  ,                                       !- Apply Tuesday
  ,                                       !- Apply Wednesday
  ,                                       !- Apply Thursday
  ,                                       !- Apply Friday
  ,                                       !- Apply Saturday
  ,                                       !- Apply Holiday
  DateRange,                              !- Date Specification Type
  1,                                      !- Start Month
  1,                                      !- Start Day
  12,                                     !- End Month
  31;                                     !- End Day

OS:Schedule:Day,
  {3ef68c7d-2c71-493f-b994-4c0433383e90}, !- Handle
  0700|2100|StripMall|default|htg_setpoint |1/1-12/31|Sun, !- Name
  {a63de57f-000c-4b60-ba79-c7349b118dc3}, !- Schedule Type Limits Name
  ,                                       !- Interpolate to Timestep
  24,                                     !- Hour 1
  0,                                      !- Minute 1
  21.0000000000001;                       !- Value Until Time 1

OS:Schedule:Ruleset,
  {5a964d83-43de-4cb3-8e17-852c508c9ee2}, !- Handle
  0700|2100|StripMall|default|rh,         !- Name
  {0e25863d-8b63-40ad-a572-9d4ffb222665}, !- Schedule Type Limits Name
  {3835fbb5-b985-46ef-8e4b-26d47d3a77d4}, !- Default Day Schedule Name
  {62f5d611-4484-4ea9-9b92-9d0875f15c47}, !- Summer Design Day Schedule Name
  {388005b0-a73b-4a6a-8016-f1e2eb67eb3f}; !- Winter Design Day Schedule Name

OS:Schedule:Day,
  {3835fbb5-b985-46ef-8e4b-26d47d3a77d4}, !- Handle
  0700|2100|StripMall|default|rh |default, !- Name
  {0e25863d-8b63-40ad-a572-9d4ffb222665}, !- Schedule Type Limits Name
  ,                                       !- Interpolate to Timestep
  24,                                     !- Hour 1
  0,                                      !- Minute 1
  50;                                     !- Value Until Time 1

OS:Schedule:Day,
  {62f5d611-4484-4ea9-9b92-9d0875f15c47}, !- Handle
  0700|2100|StripMall|default|rh Summer Design Day, !- Name