
OS:Version,
  {9e626e24-d31a-45c9-9dba-0d3c563d056a}, !- Handle
  1.6.0;                                  !- Version Identifier

OS:ClimateZones,
  {135edfab-17e7-40db-a436-27d385a8cd6d}, !- Handle
  ,                                       !- Active Institution
  ,                                       !- Active Year
  ASHRAE,                                 !- Climate Zone Institution Name 1
  ANSI/ASHRAE Standard 169,               !- Climate Zone Document Name 1
  2006,                                   !- Climate Zone Document Year 1
  ,                                       !- Climate Zone Value 1
  CEC,                                    !- Climate Zone Institution Name 2
  California Climate Zone Descriptions,   !- Climate Zone Document Name 2
  1995,                                   !- Climate Zone Document Year 2
  ;                                       !- Climate Zone Value 2

OS:YearDescription,
  {513d8dda-86cb-442a-b01c-1f7f0e0ac70e}; !- Handle

OS:RadianceParameters,
  {270a96f1-3c86-4b75-a667-cdf22790e2c8}, !- Handle
  1,                                      !- Accumulated Rays per Record
  0,                                      !- Direct Threshold
  1,                                      !- Direct Certainty
  1,                                      !- Direct Jitter
  1,                                      !- Direct Pretest
  6,                                      !- Ambient Bounces VMX
  2,                                      !- Ambient Bounces DMX
  4050,                                   !- Ambient Divisions VMX
  512,                                    !- Ambient Divisions DMX
  256,                                    !- Ambient Supersamples
  0.001,                                  !- Limit Weight VMX
  0.001,                                  !- Limit Weight DMX
  500,                                    !- Klems Sampling Density
  146;                                    !- Sky Discretization Resolution

OS:SimulationControl,
  {2c487a4c-bac9-4ac5-b669-1e49d9da7c2b}, !- Handle
  ,                                       !- Do Zone Sizing Calculation
  ,                                       !- Do System Sizing Calculation
  ,                                       !- Do Plant Sizing Calculation
  No,                                     !- Run Simulation for Sizing Periods
  ,                                       !- Run Simulation for Weather File Run Periods
  0.04,                                   !- Loads Convergence Tolerance Value
  ,                                       !- Temperature Convergence Tolerance Value {deltaC}
  ,                                       !- Solar Distribution
  ,                                       !- Maximum Number of Warmup Days
  2;                                      !- Minimum Number of Warmup Days

OS:Sizing:Parameters,
  {dde5af6f-7923-4600-a28a-7556673a0266}, !- Handle
  1.25,                                   !- Heating Sizing Factor
  1.15;                                   !- Cooling Sizing Factor

OS:ProgramControl,
  {05027a99-f2b3-4aeb-afc6-1425fbb4371d}; !- Handle

OS:Timestep,
  {4ebc9f1e-4707-402e-9844-67eb1ffbd522}, !- Handle
  2;                                      !- Number of Timesteps per Hour

OS:OutputControl:ReportingTolerances,
  {65797aa2-06a9-45fe-b69d-bc6e060399d3}; !- Handle

OS:ConvergenceLimits,
  {9fc11aba-8822-4f3d-970c-46391ba4040d}; !- Handle

OS:ShadowCalculation,
  {ca758bea-4416-4626-9bba-3d8795c79bd6}, !- Handle
  7,                                      !- Calculation Frequency
  15000;                                  !- Maximum Figures in Shadow Overlap Calculations

OS:SurfaceConvectionAlgorithm:Inside,
  {aaabfc36-718a-4ab0-b622-f186ebb45230}, !- Handle
  TARP;                                   !- Algorithm

OS:SurfaceConvectionAlgorithm:Outside,
  {9a0a9f6f-4bbd-4b12-a121-9492a1fcd7d6}, !- Handle
  DOE-2;                                  !- Algorithm

OS:HeatBalanceAlgorithm,
  {9d93e563-e1e0-46d7-9e39-d1c8aceb7212}, !- Handle
  ConductionTransferFunction,             !- Algorithm
  200;                                    !- Surface Temperature Upper Limit {F}

OS:ZoneAirHeatBalanceAlgorithm,
  {8520d93e-310f-4696-9bcd-36228bfdd743}, !- Handle
  AnalyticalSolution;                     !- Algorithm

OS:ZoneAirContaminantBalance,
  {eb5fc3ae-fb22-4160-8fcb-3e3b22b000d3}; !- Handle

OS:ZoneCapacitanceMultiplier:ResearchSpecial,
  {4020ce4f-5a7a-4849-8028-8305d7b751b1}, !- Handle
  ,                                       !- Temperature Capacity Multiplier
  ,                                       !- Humidity Capacity Multiplier
  ;                                       !- Carbon Dioxide Capacity Multiplier

OS:RunPeriod,
  {28df894d-6af9-4fb8-8f56-df1753344aa3}, !- Handle
  Run Period 1,                           !- Name
  1,                                      !- Begin Month
  1,                                      !- Begin Day of Month
  12,                                     !- End Month
  31,                                     !- End Day of Month
  ,                                       !- Use Weather File Holidays and Special Days
  ,                                       !- Use Weather File Daylight Saving Period
  ,                                       !- Apply Weekend Holiday Rule
  ,                                       !- Use Weather File Rain Indicators
  ,                                       !- Use Weather File Snow Indicators
  ;                                       !- Number of Times Runperiod to be Repeated

OS:Building,
  {bf305633-c5a1-4881-9edf-ca5e1a8e1274}, !- Handle
  Building 1,                             !- Name
  ,                                       !- Building Sector Type
  ,                                       !- North Axis {deg}
  ,                                       !- Nominal Floor to Floor Height {m}
  ,                                       !- Space Type Name
  ,                                       !- Default Construction Set Name
  {38be19d4-e1a7-48e0-92e7-b90a31ba87cc}, !- Default Schedule Set Name
  ,                                       !- Standards Number of Stories
  ,                                       !- Standards Number of Above Ground Stories
  StripMall;                              !- Standards Building Type

OS:LifeCycleCost:Parameters,
  {231cf8a0-f0e7-4251-a99f-11f0d464e661}, !- Handle
  FEMP,                                   !- Analysis Type
  ,                                       !- Discounting Convention
  ,                                       !- Inflation Approach
  ,                                       !- Real Discount Rate
  ,                                       !- Nominal Discount Rate
  ,                                       !- Inflation
  ,                                       !- Base Date Month
  ,                                       !- Base Date Year
  ,                                       !- Service Date Month
  ,                                       !- Service Date Year
  ,                                       !- Length of Study Period in Years
  ,                                       !- Tax Rate
  ,                                       !- Depreciation Method
  Yes;                                    !- Use NIST Fuel Escalation Rates

OS:Facility,
  {3ba8e45b-b833-44eb-a723-ea6c3946dc96}; !- Handle

OS:SpaceType,
  {82ffa06e-f786-468f-93d5-7da3ee027a94}, !- Handle
  StripMall|WholeBuilding|DOE Ref 1980-2004|ASHRAE 169-2006-5A, !- Name
  {5ca4d037-77c5-4a8f-99fe-ecab4c5736de}, !- Default Construction Set Name
  {a3609204-9bbd-4ba1-b592-521634734307}, !- Default Schedule Set Name
  {d5c3aa26-ae44-4fa5-b04b-5f092cdfe161}, !- Group Rendering Name
  {bd93b1ed-eb03-4e91-b226-f5925e98ace4}, !- Design Specification Outdoor Air Object Name
  StripMall,                              !- Standards Building Type
  WholeBuilding;                          !- Standards Space Type

OS:Rendering:Color,
  {d5c3aa26-ae44-4fa5-b04b-5f092cdfe161}, !- Handle
  Rendering Color 1,                      !- Name
  171,                                    !- Rendering Red Value
  222,                                    !- Rendering Green Value
  78;                                     !- Rendering Blue Value

OS:Schedule:Ruleset,
  {c4ef8959-b202-4c99-af64-708cd37d7d90}, !- Handle
  0700|2100|StripMall|default|hoo,        !- Name
  {6bf971da-62ae-4c33-944d-7a573d142d51}, !- Schedule Type Limits Name
  {a67c04b3-1146-4c29-bfd2-43508f52d88d}, !- Default Day Schedule Name
  {b8f3747f-4b71-47c4-bf47-89ccefc1d84f}, !- Summer Design Day Schedule Name
  {7fb3b1a1-1102-4148-8fe6-b52236876399}; !- Winter Design Day Schedule Name

OS:Schedule:Day,
  {a67c04b3-1146-4c29-bfd2-43508f52d88d}, !- Handle
  0700|2100|StripMall|default|hoo Schedule Week Day, !- Name
  {6bf971da-62ae-4c33-944d-7a573d142d51}, !- Schedule Type Limits Name
  ,                                       !- Interpolate to Timestep
  7,                                      !- Hour 1
  0,                                      !- Minute 1
  0,                                      !- Value Until Time 1
  21,                                     !- Hour 2
  0,                                      !- Minute 2
  1,                                      !- Value Until Time 2
  24,                                     !- Hour 3
  0,                                      !- Minute 3
  0;                                      !- Value Until Time 3

OS:Schedule:Day,
  {84958014-0a3a-4ed6-a526-93d2caeb3588}, !- Handle
  Schedule Day 2,                         !- Name
  ,                                       !- Schedule Type Limits Name
  ,                                       !- Interpolate to Timestep
  24,                                     !- Hour 1
  0,                                      !- Minute 1
  0;                                      !- Value Until Time 1

OS:Schedule:Day,
  {7fb3b1a1-1102-4148-8fe6-b52236876399}, !- Handle
  0700|2100|StripMall|default|hoo Winter Design Day, !- Name
  {6bf971da-62ae-4c33-944d-7a573d142d51}, !- Schedule Type Limits Name
  ,                                       !- Interpolate to Timestep
  24,                                     !- Hour 1
  0,                                      !- Minute 1
  0;                                      !- Value Until Time 1

OS:Schedule:Day,
  {6c2f41ba-5197-4c21-b039-119a47d3a642}, !- Handle
  Schedule Day 3,                         !- Name
  ,                                       !- Schedule Type Limits Name
  ,                                       !- Interpolate to Timestep
  24,                                     !- Hour 1
  0,                                      !- Minute 1
  0;                                      !- Value Until Time 1

OS:Schedule:Day,
  {b8f3747f-4b71-47c4-bf47-89ccefc1d84f}, !- Handle
  0700|2100|StripMall|default|hoo Summer Design Day, !- Name
  {6bf971da-62ae-4c33-944d-7a573d142d51}, !- Schedule Type Limits Name
  ,                                       !- Interpolate to Timestep
  24,                                     !- Hour 1
  0,                                      !- Minute 1
  1;                                      !- Value Until Time 1

OS:DefaultScheduleSet,
  {38be19d4-e1a7-48e0-92e7-b90a31ba87cc}, !- Handle
  Building Hours of Operation,            !- Name
  {c4ef8959-b202-4c99-af64-708cd37d7d90}, !- Hours of Operation Schedule Name
  ,                                       !- Number of People Schedule Name
  ,                                       !- People Activity Level Schedule Name
  ,                                       !- Lighting Schedule Name
  ,                                       !- Electric Equipment Schedule Name
  ,                                       !- Gas Equipment Schedule Name
  ,                                       !- Hot Water Equipment Schedule Name
  ,                                       !- Infiltration Schedule Name
  ,                                       !- Steam Equipment Schedule Name
  ;                                       !- Other Equipment Schedule Name

OS:ScheduleTypeLimits,
  {6bf971da-62ae-4c33-944d-7a573d142d51}, !- Handle
  OnOff,                                  !- Name
  0,                                      !- Lower Limit Value {BasedOnField A4}
  1,                                      !- Upper Limit Value {BasedOnField A4}
  Discrete,                               !- Numeric Type
  Availability;                           !- Unit Type

OS:Schedule:Ruleset,
  {9ea779f8-d333-451e-a151-f363e6edbd67}, !- Handle
  0700|2100|StripMall|default|htg_setpoint, !- Name
  {2b4b0a3a-2227-478c-9579-6beb8d201d62}, !- Schedule Type Limits Name
  {209857a0-fc8b-460d-b3d1-f3872ac884e2}, !- Default Day Schedule Name
  {995bc3f2-4861-40de-97f4-9072d327de92}, !- Summer Design Day Schedule Name
  {9b156c22-f23a-4f71-8196-18a3d2409367}; !- Winter Design Day Schedule Name

OS:ScheduleTypeLimits,
  {2b4b0a3a-2227-478c-9579-6beb8d201d62}, !- Handle
  Thermostat Heating Setpoint Schedule Type Limits, !- Name
  0,                                      !- Lower Limit Value {BasedOnField A4}
  100,                                    !- Upper Limit Value {BasedOnField A4}
  Continuous,                             !- Numeric Type
  Temperature;                            !- Unit Type

OS:Schedule:Day,
  {209857a0-fc8b-460d-b3d1-f3872ac884e2}, !- Handle
  0700|2100|StripMall|default|htg_setpoint |default, !- Name
  {2b4b0a3a-2227-478c-9579-6beb8d201d62}, !- Schedule Type Limits Name
  ,                                       !- Interpolate to Timestep
  24,                                     !- Hour 1
  0,                                      !- Minute 1
  21.0000000000001;                       !- Value Until Time 1

OS:Schedule:Day,
  {995bc3f2-4861-40de-97f4-9072d327de92}, !- Handle
  0700|2100|StripMall|default|htg_setpoint Summer Design Day, !- Name
  {2b4b0a3a-2227-478c-9579-6beb8d201d62}, !- Schedule Type Limits Name
  ,                                       !- Interpolate to Timestep
  24,                                     !- Hour 1
  0,                                      !- Minute 1
  21.0000000000001;                       !- Value Until Time 1

OS:Schedule:Day,
  {9b156c22-f23a-4f71-8196-18a3d2409367}, !- Handle
  0700|2100|StripMall|default|htg_setpoint Winter Design Day, !- Name
  {2b4b0a3a-2227-478c-9579-6beb8d201d62}, !- Schedule Type Limits Name
  ,                                       !- Interpolate to Timestep
  24,                                     !- Hour 1
  0,                                      !- Minute 1
  21.0000000000001;                       !- Value Until Time 1

OS:Schedule:Rule,
  {87e0ff6e-32a4-4aba-b3a8-6ad55033c9a2}, !- Handle
  0700|2100|StripMall|default|htg_setpoint |1/1-12/31|Sat Rule, !- Name
  {9ea779f8-d333-451e-a151-f363e6edbd67}, !- Schedule Ruleset Name
  0,                                      !- Rule Order
  {f3f41058-5f39-4fad-875c-55f69aa10ac5}, !- Day Schedule Name
  ,                                       !- Apply Sunday
  ,                                       !- Apply Monday
  ,                                       !- Apply Tuesday
  ,                                       !- Apply Wednesday
  ,                                       !- Apply Thursday
  ,                                       !- Apply Friday
  Yes,                                    !- Apply Saturday
  ,                                       !- Apply Holiday
  DateRange,                              !- Date Specification Type
  1,                                      !- Start Month
  1,                                      !- Start Day
  12,                                     !- End Month
  31;                                     !- End Day

OS:Schedule:Day,
  {f3f41058-5f39-4fad-875c-55f69aa10ac5}, !- Handle
  0700|2100|StripMall|default|htg_setpoint |1/1-12/31|Sat, !- Name
  {2b4b0a3a-2227-478c-9579-6beb8d201d62}, !- Schedule Type Limits Name
  ,                                       !- Interpolate to Timestep
  24,                                     !- Hour 1
  0,                                      !- Minute 1
  21.0000000000001;                       !- Value Until Time 1

OS:Schedule:Rule,
  {7453b9d0-9de3-4ca2-a7ac-25c0dcac3e55}, !- Handle
  0700|2100|StripMall|default|htg_setpoint |1/1-12/31|Sun Rule, !- Name
  {9ea779f8-d333-451e-a151-f363e6edbd67}, !- Schedule Ruleset Name
  1,                                      !- Rule Order
  {d7328f15-e3a8-486b-848c-2bbe3dabad49}, !- Day Schedule Name
  Yes,                                    !- Apply Sunday
  ,                                       !- Apply Monday
  ,                                       !- Apply Tuesday
  ,                                       !- Apply Wednesday
  ,                                       !- Apply Thursday
  ,                                       !- Apply Friday
  ,                                       !- Apply Saturday
  ,                                       !- Apply Holiday
  DateRange,                              !- Date Specification Type
  1,                                      !- Start Month
  1,                                      !- Start Day
  12,                                     !- End Month
  31;                                     !- End Day

OS:Schedule:Day,
  {d7328f15-e3a8-486b-848c-2bbe3dabad49}, !- Handle
  0700|2100|StripMall|default|htg_setpoint |1/1-12/31|Sun, !- Name
  {2b4b0a3a-2227-478c-9579-6beb8d201d62}, !- Schedule Type Limits Name
  ,                                       !- Interpolate to Timestep
  24,                                     !- Hour 1
  0,                                      !- Minute 1
  21.0000000000001;                       !- Value Until Time 1

OS:Schedule:Ruleset,
  {ff9e29ab-dc8f-43a6-9460-5ec5bd929d96}, !- Handle
  0700|2100|StripMall|default|hvac,       !- Name
  {1528c94e-0d73-4cba-9f75-b438c1df8415}, !- Schedule Type Limits Name
  {6779e9b0-e013-4014-b2e5-107978890cbd}, !- Default Day Schedule Name
  {12c5eef3-d20d-498f-9e5f-cdc22c0a4bb0}, !- Summer Design Day Schedule Name
  {83785215-4ac4-4ee0-b7dd-b0d574029e54}; !- Winter Design Day Schedule Name

OS:ScheduleTypeLimits,
  {1528c94e-0d73-4cba-9f75-b438c1df8415}, !- Handle
  HVAC Operation Schedule Type Limits,    !- Name
  0,                                      !- Lower Limit Value {BasedOnField A4}
  1,                                      !- Upper Limit Value {BasedOnField A4}
  Discrete,                               !- Numeric Type
  Availability;                           !- Unit Type

OS:Schedule:Day,
  {6779e9b0-e013-4014-b2e5-107978890cbd}, !- Handle
  0700|2100|StripMall|default|hvac |default, !- Name
  {1528c94e-0d73-4cba-9f75-b438c1df8415}, !- Schedule Type Limits Name
  ,                                       !- Interpolate to Timestep
  8,                                      !- Hour 1
  0,                                      !- Minute 1
  0,                                      !- Value Until Time 1
  19,                                     !- Hour 2
  0,                                      !- Minute 2
  1,                                      !- Value Until Time 2
  24,                                     !- Hour 3
  0,                                      !- Minute 3
  0;                                      !- Value Until Time 3

OS:Schedule:Day,
  {12c5eef3-d20d-498f-9e5f-cdc22c0a4bb0}, !- Handle
  0700|2100|StripMall|default|hvac Summer Design Day, !- Name
  {1528c94e-0d73-4cba-9f75-b438c1df8415}, !- Schedule Type Limits Name
  ,                                       !- Interpolate to Timestep
  8,                                      !- Hour 1
  0,                                      !- Minute 1
  0,                                      !- Value Until Time 1
  19,                                     !- Hour 2
  0,                                      !- Minute 2
  1,                                      !- Value Until Time 2
  24,                                     !- Hour 3
  0,                                      !- Minute 3
  0;                                      !- Value Until Time 3

OS:Schedule:Day,
  {83785215-4ac4-4ee0-b7dd-b0d574029e54}, !- Handle
  0700|2100|StripMall|default|hvac Winter Design Day, !- Name
  {1528c94e-0d73-4cba-9f75-b438c1df8415}, !- Schedule Type Limits Name
  ,                                       !- Interpolate to Timestep
  8,                                      !- Hour 1
  0,                                      !- Minute 1
  0,                                      !- Value Until Time 1
  19,                                     !- Hour 2
  0,                                      !- Minute 2
  1,                                      !- Value Until Time 2
  24,                                     !- Hour 3
  0,                                      !- Minute 3
  0;                                      !- Value Until Time 3

OS:Schedule:Ruleset,
  {2957c865-f889-437e-919c-736925f66e3f}, !- Handle
  0700|2100|StripMall|default|swh,        !- Name
  {afc1e314-40ef-4c87-9da6-6ec1f91b7290}, !- Schedule Type Limits Name
  {3cd62dba-bc7c-4df2-bf06-d5e48cf9bef5}, !- Default Day Schedule Name
  {88175242-b466-471c-9a16-90f344e7763f}, !- Summer Design Day Schedule Name
  {a5a4f619-db28-439b-847c-08e80ecb06d3}; !- Winter Design Day Schedule Name

OS:ScheduleTypeLimits,
  {afc1e314-40ef-4c87-9da6-6ec1f91b7290}, !- Handle
  Water Use Schedule Type Limits,         !- Name
  0,                                      !- Lower Limit Value {BasedOnField A4}
  1,                                      !- Upper Limit Value {BasedOnField A4}
  Continuous,                             !- Numeric Type
  Dimensionless;                          !- Unit Type

OS:Schedule:Day,
  {3cd62dba-bc7c-4df2-bf06-d5e48cf9bef5}, !- Handle
  0700|2100|StripMall|default|swh |default, !- Name
  {afc1e314-40ef-4c87-9da6-6ec1f91b7290}, !- Schedule Type Limits Name
  ,                                       !- Interpolate to Timestep
  10,                                     !- Hour 1
  0,                                      !- Minute 1
  0,                                      !- Value Until Time 1
  11,                                     !- Hour 2
  0,                                      !- Minute 2
  0.12,                                   !- Value Until Time 2
  12,                                     !- Hour 3
  0,                                      !- Minute 3
  0.29,                                   !- Value Until Time 3
  13,                                     !- Hour 4
  0,                                      !- Minute 4
  0.31,                                   !- Value Until Time 4
  15,                                     !- Hour 5
  0,                                      !- Minute 5
  0.36,                                   !- Value Until Time 5
  16,                                     !- Hour 6
  0,                                      !- Minute 6
  0.34,                                   !- Value Until Time 6
  17,                                     !- Hour 7
  0,                                      !- Minute 7
  0.35,                                   !- Value Until Time 7
  18,                                     !- Hour 8
  0,                                      !- Minute 8
  0.37,                                   !- Value Until Time 8
  24,                                     !- Hour 9
  0,                                      !- Minute 9
  0;                                      !- Value Until Time 9

OS:Schedule:Day,
  {88175242-b466-471c-9a16-90f344e7763f}, !- Handle
  0700|2100|StripMall|default|swh Summer Design Day, !- Name
  {afc1e314-40ef-4c87-9da6-6ec1f91b7290}, !- Schedule Type Limits Name
  ,                                       !- Interpolate to Timestep
  10,                                     !- Hour 1
  0,                                      !- Minute 1
  0,                                      !- Value Until Time 1
  11,                                     !- Hour 2
  0,                                      !- Minute 2
  0.12,                                   !- Value Until Time 2
  12,                                     !- Hour 3
  0,                                      !- Minute 3
  0.29,                                   !- Value Until Time 3
  13,                                     !- Hour 4
  0,                                      !- Minute 4
  0.31,                                   !- Value Until Time 4
  15,                                     !- Hour 5
  0,                                      !- Minute 5
  0.36,                                   !- Value Until Time 5
  16,                                     !- Hour 6
  0,                                      !- Minute 6
  0.34,                                   !- Value Until Time 6
  17,                                     !- Hour 7
  0,                                      !- Minute 7
  0.35,                                   !- Value Until Time 7
  18,                                     !- Hour 8
  0,                                      !- Minute 8
  0.37,                                   !- Value Until Time 8
  24,                                     !- Hour 9
  0,                                      !- Minute 9
  0;                                      !- Value Until Time 9

OS:Schedule:Day,
  {a5a4f619-db28-439b-847c-08e80ecb06d3}, !- Handle
  0700|2100|StripMall|default|swh Winter Design Day, !- Name
  {afc1e314-40ef-4c87-9da6-6ec1f91b7290}, !- Schedule Type Limits Name
  ,                                       !- Interpolate to Timestep
  10,                                     !- Hour 1
  0,                                      !- Minute 1
  0,                                      !- Value Until Time 1
  11,                                     !- Hour 2
  0,                                      !- Minute 2
  0.12,                                   !- Value Until Time 2
  12,                                     !- Hour 3
  0,                                      !- Minute 3
  0.29,                                   !- Value Until Time 3
  13,                                     !- Hour 4
  0,                                      !- Minute 4
  0.31,                                   !- Value Until Time 4
  15,                                     !- Hour 5
  0,                                      !- Minute 5
  0.36,                                   !- Value Until Time 5
  16,                                     !- Hour 6
  0,                                      !- Minute 6
  0.34,                                   !- Value Until Time 6
  17,                                     !- Hour 7
  0,                                      !- Minute 7
  0.35,                                   !- Value Until Time 7
  18,                                     !- Hour 8
  0,                                      !- Minute 8
  0.37,                                   !- Value Until Time 8
  24,                                     !- Hour 9
  0,                                      !- Minute 9
  0;                                      !- Value Until Time 9

OS:Schedule:Rule,
  {8c0c4f8b-695f-43eb-ad42-d9c2b7cd3d73}, !- Handle
  0700|2100|StripMall|default|swh |1/1-12/31|Mon/Tue/Wed/Thu/Fri Rule, !- Name
  {2957c865-f889-437e-919c-736925f66e3f}, !- Schedule Ruleset Name
  0,                                      !- Rule Order
  {00fc40be-7390-46dd-a22c-f51ff283ea08}, !- Day Schedule Name
  ,                                       !- Apply Sunday
  Yes,                                    !- Apply Monday
  Yes,                                    !- Apply Tuesday
  Yes,                                    !- Apply Wednesday
  Yes,                                    !- Apply Thursday
  Yes,                                    !- Apply Friday
  ,                                       !- Apply Saturday
  ,                                       !- Apply Holiday
  DateRange,                              !- Date Specification Type
  1,                                      !- Start Month
  1,                                      !- Start Day
  12,                                     !- End Month
  31;                                     !- End Day

OS:Schedule:Day,
  {00fc40be-7390-46dd-a22c-f51ff283ea08}, !- Handle
  0700|2100|StripMall|default|swh |1/1-12/31|Mon/Tue/Wed/Thu/Fri, !- Name
  {afc1e314-40ef-4c87-9da6-6ec1f91b7290}, !- Schedule Type Limits Name
  ,                                       !- Interpolate to Timestep
  9,                                      !- Hour 1
  0,                                      !- Minute 1
  0,                                      !- Value Until Time 1
  10,                                     !- Hour 2
  0,                                      !- Minute 2
  0.15,                                   !- Value Until Time 2
  11,                                     !- Hour 3
  0,                                      !- Minute 3
  0.25,                                   !- Value Until Time 3
  12,                                     !- Hour 4
  0,                                      !- Minute 4
  0.41,                                   !- Value Until Time 4
  13,                                     !- Hour 5
  0,                                      !- Minute 5
  0.57,                                   !- Value Until Time 5
  14,                                     !- Hour 6
  0,                                      !- Minute 6
  0.62,                                   !- Value Until Time 6
  15,                                     !- Hour 7
  0,                                      !- Minute 7
  0.61,                                   !- Value Until Time 7
  16,                                     !- Hour 8
  0,                                      !- Minute 8
  0.5,                                    !- Value Until Time 8
  17,                                     !- Hour 9
  0,                                      !- Minute 9
  0.45,                                   !- Value Until Time 9