
OS:Version,
  {5040c556-2986-4fef-89a8-25b2ead781ce}, !- Handle
  1.5.5;                                  !- Version Identifier

OS:ClimateZones,
  {135edfab-17e7-40db-a436-27d385a8cd6d}, !- Handle
  ,                                       !- Active Institution
  ,                                       !- Active Year
  ASHRAE,                                 !- Climate Zone Institution Name 1
  ANSI/ASHRAE Standard 169,               !- Climate Zone Document Name 1
  2006,                                   !- Climate Zone Document Year 1
  ,                                       !- Climate Zone Value 1
  CEC,                                    !- Climate Zone Institution Name 2
  California Climate Zone Descriptions,   !- Climate Zone Document Name 2
  1995,                                   !- Climate Zone Document Year 2
  ;                                       !- Climate Zone Value 2

OS:YearDescription,
  {513d8dda-86cb-442a-b01c-1f7f0e0ac70e}; !- Handle

OS:RadianceParameters,
  {270a96f1-3c86-4b75-a667-cdf22790e2c8}, !- Handle
  1,                                      !- Accumulated Rays per Record
  0,                                      !- Direct Threshold
  1,                                      !- Direct Certainty
  1,                                      !- Direct Jitter
  1,                                      !- Direct Pretest
  6,                                      !- Ambient Bounces VMX
  2,                                      !- Ambient Bounces DMX
  4050,                                   !- Ambient Divisions VMX
  512,                                    !- Ambient Divisions DMX
  256,                                    !- Ambient Supersamples
  0.001,                                  !- Limit Weight VMX
  0.001,                                  !- Limit Weight DMX
  500,                                    !- Klems Sampling Density
  146;                                    !- Sky Discretization Resolution

OS:SimulationControl,
  {2c487a4c-bac9-4ac5-b669-1e49d9da7c2b}, !- Handle
  ,                                       !- Do Zone Sizing Calculation
  ,                                       !- Do System Sizing Calculation
  ,                                       !- Do Plant Sizing Calculation
  No,                                     !- Run Simulation for Sizing Periods
  ,                                       !- Run Simulation for Weather File Run Periods
  0.04,                                   !- Loads Convergence Tolerance Value
  ,                                       !- Temperature Convergence Tolerance Value {deltaC}
  ,                                       !- Solar Distribution
  ,                                       !- Maximum Number of Warmup Days
  2;                                      !- Minimum Number of Warmup Days

OS:Sizing:Parameters,
  {dde5af6f-7923-4600-a28a-7556673a0266}, !- Handle
  1.25,                                   !- Heating Sizing Factor
  1.15;                                   !- Cooling Sizing Factor

OS:ProgramControl,
  {05027a99-f2b3-4aeb-afc6-1425fbb4371d}; !- Handle

OS:Timestep,
  {4ebc9f1e-4707-402e-9844-67eb1ffbd522}, !- Handle
  2;                                      !- Number of Timesteps per Hour

OS:OutputControl:ReportingTolerances,
  {65797aa2-06a9-45fe-b69d-bc6e060399d3}; !- Handle

OS:ConvergenceLimits,
  {9fc11aba-8822-4f3d-970c-46391ba4040d}; !- Handle

OS:ShadowCalculation,
  {ca758bea-4416-4626-9bba-3d8795c79bd6}, !- Handle
  7,                                      !- Calculation Frequency
  15000;                                  !- Maximum Figures in Shadow Overlap Calculations

OS:SurfaceConvectionAlgorithm:Inside,
  {aaabfc36-718a-4ab0-b622-f186ebb45230}, !- Handle
  TARP;                                   !- Algorithm

OS:SurfaceConvectionAlgorithm:Outside,
  {9a0a9f6f-4bbd-4b12-a121-9492a1fcd7d6}, !- Handle
  DOE-2;                                  !- Algorithm

OS:HeatBalanceAlgorithm,
  {9d93e563-e1e0-46d7-9e39-d1c8aceb7212}, !- Handle
  ConductionTransferFunction,             !- Algorithm
  200;                                    !- Surface Temperature Upper Limit {F}

OS:ZoneAirHeatBalanceAlgorithm,
  {8520d93e-310f-4696-9bcd-36228bfdd743}, !- Handle
  AnalyticalSolution;                     !- Algorithm

OS:ZoneAirContaminantBalance,
  {eb5fc3ae-fb22-4160-8fcb-3e3b22b000d3}; !- Handle

OS:ZoneCapacitanceMultiplier:ResearchSpecial,
  {4020ce4f-5a7a-4849-8028-8305d7b751b1}, !- Handle
  ,                                       !- Temperature Capacity Multiplier
  ,                                       !- Humidity Capacity Multiplier
  ;                                       !- Carbon Dioxide Capacity Multiplier

OS:RunPeriod,
  {28df894d-6af9-4fb8-8f56-df1753344aa3}, !- Handle
  Run Period 1,                           !- Name
  1,                                      !- Begin Month
  1,                                      !- Begin Day of Month
  12,                                     !- End Month
  31,                                     !- End Day of Month
  ,                                       !- Use Weather File Holidays and Special Days
  ,                                       !- Use Weather File Daylight Saving Period
  ,                                       !- Apply Weekend Holiday Rule
  ,                                       !- Use Weather File Rain Indicators
  ,                                       !- Use Weather File Snow Indicators
  ;                                       !- Number of Times Runperiod to be Repeated

OS:Building,
  {bf305633-c5a1-4881-9edf-ca5e1a8e1274}, !- Handle
  Building 1,                             !- Name
  ,                                       !- Building Sector Type
  ,                                       !- North Axis {deg}
  ,                                       !- Nominal Floor to Floor Height {m}
  ,                                       !- Space Type Name
  ,                                       !- Default Construction Set Name
  {677543a0-caf6-4e3a-9796-457dda9a1e1a}, !- Default Schedule Set Name
  ,                                       !- Standards Number of Stories
  ,                                       !- Standards Number of Above Ground Stories
  SuperMarket;                            !- Standards Building Type

OS:LifeCycleCost:Parameters,
  {231cf8a0-f0e7-4251-a99f-11f0d464e661}, !- Handle
  FEMP,                                   !- Analysis Type
  ,                                       !- Discounting Convention
  ,                                       !- Inflation Approach
  ,                                       !- Real Discount Rate
  ,                                       !- Nominal Discount Rate
  ,                                       !- Inflation
  ,                                       !- Base Date Month
  ,                                       !- Base Date Year
  ,                                       !- Service Date Month
  ,                                       !- Service Date Year
  ,                                       !- Length of Study Period in Years
  ,                                       !- Tax Rate
  ,                                       !- Depreciation Method
  Yes;                                    !- Use NIST Fuel Escalation Rates

OS:Facility,
  {3ba8e45b-b833-44eb-a723-ea6c3946dc96}; !- Handle

OS:SpaceType,
  {e80285c0-b5b8-4727-af36-ad529940f50d}, !- Handle
  SuperMarket|Sales/Produce|DOE Ref 2004|ASHRAE 169-2006-5A, !- Name
  {f6ef288c-d123-4232-b474-70d7e422991d}, !- Default Construction Set Name
  {acef5538-8a09-4c1d-bec1-03a8708d76d3}, !- Default Schedule Set Name
  {186f026c-031a-4246-8307-a03e1a1e0c7d}, !- Group Rendering Name
  {12af8b30-65cf-4e6a-a09b-af94ccd7a497}, !- Design Specification Outdoor Air Object Name
  SuperMarket,                            !- Standards Building Type
  Sales/Produce;                          !- Standards Space Type

OS:Rendering:Color,
  {186f026c-031a-4246-8307-a03e1a1e0c7d}, !- Handle
  Rendering Color 1,                      !- Name
  230,                                    !- Rendering Red Value
  196,                                    !- Rendering Green Value
  120;                                    !- Rendering Blue Value

OS:SpaceType,
  {220c12d8-fdaf-4620-b606-7daa15260f0f}, !- Handle
  SuperMarket|DryStorage|DOE Ref 2004|ASHRAE 169-2006-5A, !- Name
  {f6ef288c-d123-4232-b474-70d7e422991d}, !- Default Construction Set Name
  {cbbccb13-b45c-494b-a677-e0a915729c2f}, !- Default Schedule Set Name
  {244e79f1-44c9-418d-96f5-16ab242b59d0}, !- Group Rendering Name
  {1dd5311e-af8a-4867-8f3d-2107f1316a5b}, !- Design Specification Outdoor Air Object Name
  SuperMarket,                            !- Standards Building Type
  DryStorage;                             !- Standards Space Type

OS:Rendering:Color,
  {244e79f1-44c9-418d-96f5-16ab242b59d0}, !- Handle
  Rendering Color 2,                      !- Name
  120,                                    !- Rendering Red Value
  149,                                    !- Rendering Green Value
  230;                                    !- Rendering Blue Value

OS:SpaceType,
  {a9a1f25e-6ee0-4f58-937d-d8f2b694a609}, !- Handle
  SuperMarket|Deli/Bakery|DOE Ref 2004|ASHRAE 169-2006-5A, !- Name
  {f6ef288c-d123-4232-b474-70d7e422991d}, !- Default Construction Set Name
  {8511ccb9-0034-411c-a8fb-d054f65f9591}, !- Default Schedule Set Name
  {47754e31-921c-4941-be5a-0e2a88434adb}, !- Group Rendering Name
  {76a8e7cf-da1f-45af-828b-3ffcf43a524b}, !- Design Specification Outdoor Air Object Name
  SuperMarket,                            !- Standards Building Type
  Deli/Bakery;                            !- Standards Space Type

OS:Rendering:Color,
  {47754e31-921c-4941-be5a-0e2a88434adb}, !- Handle
  Rendering Color 3,                      !- Name
  31,                                     !- Rendering Red Value
  169,                                    !- Rendering Green Value
  34;                                     !- Rendering Blue Value

OS:SpaceType,
  {1eef848f-1f24-44d8-91ab-16a60e6f2c82}, !- Handle
  SuperMarket|Office|DOE Ref 2004|ASHRAE 169-2006-5A, !- Name
  {f6ef288c-d123-4232-b474-70d7e422991d}, !- Default Construction Set Name
  {c7621659-4a47-4ac3-8451-ae57cb8f54fc}, !- Default Schedule Set Name
  {b5f3c278-2bf0-4ea6-8f95-a94ecb756ab0}, !- Group Rendering Name
  {7428d96a-0fcd-4127-ba1c-3e774162f3bd}, !- Design Specification Outdoor Air Object Name
  SuperMarket,                            !- Standards Building Type
  Office;                                 !- Standards Space Type

OS:Rendering:Color,
  {b5f3c278-2bf0-4ea6-8f95-a94ecb756ab0}, !- Handle
  Rendering Color 4,                      !- Name
  120,                                    !- Rendering Red Value
  230,                                    !- Rendering Green Value
  199;                                    !- Rendering Blue Value

OS:Schedule:Ruleset,
  {65fc2f01-da32-46e3-8441-4beb315a0970}, !- Handle
  0600|2200|SuperMarket|default|hoo,      !- Name
  {8a00cb9b-a4d9-461d-bb2b-61d873309ee3}, !- Schedule Type Limits Name
  {356310d9-4cf9-434c-8056-48490b67cd39}, !- Default Day Schedule Name
  {6669de4e-42c1-41c6-9e81-911ac4d0422d}, !- Summer Design Day Schedule Name
  {3248fab5-3096-4585-946b-4f43a3e1711d}; !- Winter Design Day Schedule Name

OS:Schedule:Day,
  {356310d9-4cf9-434c-8056-48490b67cd39}, !- Handle
  0600|2200|SuperMarket|default|hoo Schedule Week Day, !- Name
  {8a00cb9b-a4d9-461d-bb2b-61d873309ee3}, !- Schedule Type Limits Name
  ,                                       !- Interpolate to Timestep
  6,                                      !- Hour 1
  0,                                      !- Minute 1
  0,                                      !- Value Until Time 1
  22,                                     !- Hour 2
  0,                                      !- Minute 2
  1,                                      !- Value Until Time 2
  24,                                     !- Hour 3
  0,                                      !- Minute 3
  0;                                      !- Value Until Time 3

OS:Schedule:Day,
  {da525b86-cc10-4c2f-aea8-2f4c5a2055a1}, !- Handle
  Schedule Day 2,                         !- Name
  ,                                       !- Schedule Type Limits Name
  ,                                       !- Interpolate to Timestep
  24,                                     !- Hour 1
  0,                                      !- Minute 1
  0;                                      !- Value Until Time 1

OS:Schedule:Day,
  {3248fab5-3096-4585-946b-4f43a3e1711d}, !- Handle
  0600|2200|SuperMarket|default|hoo Winter Design Day, !- Name
  {8a00cb9b-a4d9-461d-bb2b-61d873309ee3}, !- Schedule Type Limits Name
  ,                                       !- Interpolate to Timestep
  24,                                     !- Hour 1
  0,                                      !- Minute 1
  0;                                      !- Value Until Time 1

OS:Schedule:Day,
  {66465877-0694-4fc0-b534-b5a604f3a803}, !- Handle
  Schedule Day 3,                         !- Name
  ,                                       !- Schedule Type Limits Name
  ,                                       !- Interpolate to Timestep
  24,                                     !- Hour 1
  0,                                      !- Minute 1
  0;                                      !- Value Until Time 1

OS:Schedule:Day,
  {6669de4e-42c1-41c6-9e81-911ac4d0422d}, !- Handle
  0600|2200|SuperMarket|default|hoo Summer Design Day, !- Name
  {8a00cb9b-a4d9-461d-bb2b-61d873309ee3}, !- Schedule Type Limits Name
  ,                                       !- Interpolate to Timestep
  24,                                     !- Hour 1
  0,                                      !- Minute 1
  1;                                      !- Value Until Time 1

OS:DefaultScheduleSet,
  {677543a0-caf6-4e3a-9796-457dda9a1e1a}, !- Handle
  Building Hours of Operation,            !- Name
  {65fc2f01-da32-46e3-8441-4beb315a0970}, !- Hours of Operation Schedule Name
  ,                                       !- Number of People Schedule Name
  ,                                       !- People Activity Level Schedule Name
  ,                                       !- Lighting Schedule Name
  ,                                       !- Electric Equipment Schedule Name
  ,                                       !- Gas Equipment Schedule Name
  ,                                       !- Hot Water Equipment Schedule Name
  ,                                       !- Infiltration Schedule Name
  ,                                       !- Steam Equipment Schedule Name
  ;                                       !- Other Equipment Schedule Name

OS:ScheduleTypeLimits,
  {8a00cb9b-a4d9-461d-bb2b-61d873309ee3}, !- Handle
  OnOff,                                  !- Name
  0,                                      !- Lower Limit Value {BasedOnField A4}
  1,                                      !- Upper Limit Value {BasedOnField A4}
  Discrete,                               !- Numeric Type
  Availability;                           !- Unit Type

OS:Schedule:Ruleset,
  {3af329ac-dd63-42ed-8648-22c0a6f53767}, !- Handle
  0600|2200|SuperMarket|default|occ,      !- Name
  {ff0b09c8-2e4b-4c59-a3b1-b2902b044ebb}, !- Schedule Type Limits Name
  {571c5c3f-c8cb-4273-b286-aab133079d2c}, !- Default Day Schedule Name
  {8dda9d34-ba53-43d2-86d4-be816b1f7f9d}, !- Summer Design Day Schedule Name
  {195b2754-0d22-4980-a180-5978e7767b88}; !- Winter Design Day Schedule Name

OS:ScheduleTypeLimits,
  {ff0b09c8-2e4b-4c59-a3b1-b2902b044ebb}, !- Handle
  Occupancy Schedule Type Limits,         !- Name
  0,                                      !- Lower Limit Value {BasedOnField A4}
  1,                                      !- Upper Limit Value {BasedOnField A4}
  Continuous,                             !- Numeric Type
  Dimensionless;                          !- Unit Type

OS:Schedule:Day,
  {571c5c3f-c8cb-4273-b286-aab133079d2c}, !- Handle
  0600|2200|SuperMarket|default|occ |default, !- Name
  {ff0b09c8-2e4b-4c59-a3b1-b2902b044ebb}, !- Schedule Type Limits Name
  ,                                       !- Interpolate to Timestep
  6,                                      !- Hour 1
  0,                                      !- Minute 1
  0,                                      !- Value Until Time 1
  8,                                      !- Hour 2
  0,                                      !- Minute 2
  0.1,                                    !- Value Until Time 2
  9,                                      !- Hour 3
  0,                                      !- Minute 3
  0.2,                                    !- Value Until Time 3
  11,                                     !- Hour 4
  0,                                      !- Minute 4
  0.5,                                    !- Value Until Time 4
  15,                                     !- Hour 5
  0,                                      !- Minute 5
  0.7,                                    !- Value Until Time 5
  16,                                     !- Hour 6
  0,                                      !- Minute 6
  0.8,                                    !- Value Until Time 6
  17,                                     !- Hour 7
  0,                                      !- Minute 7
  0.7,                                    !- Value Until Time 7
  19,                                     !- Hour 8
  0,                                      !- Minute 8
  0.5,                                    !- Value Until Time 8
  22,                                     !- Hour 9
  0,                                      !- Minute 9
  0.3,                                    !- Value Until Time 9
  24,                                     !- Hour 10
  0,                                      !- Minute 10
  0;                                      !- Value Until Time 10

OS:Schedule:Day,
  {8dda9d34-ba53-43d2-86d4-be816b1f7f9d}, !- Handle
  0600|2200|SuperMarket|default|occ Summer Design Day, !- Name
  {ff0b09c8-2e4b-4c59-a3b1-b2902b044ebb}, !- Schedule Type Limits Name
  ,                                       !- Interpolate to Timestep
  6,                                      !- Hour 1
  0,                                      !- Minute 1
  0,                                      !- Value Until Time 1
  8,                                      !- Hour 2
  0,                                      !- Minute 2
  0.1,                                    !- Value Until Time 2
  9,                                      !- Hour 3
  0,                                      !- Minute 3
  0.2,                                    !- Value Until Time 3
  22,                                     !- Hour 4
  0,                                      !- Minute 4
  1,                                      !- Value Until Time 4
  24,                                     !- Hour 5
  0,                                      !- Minute 5
  0;                                      !- Value Until Time 5

OS:Schedule:Day,
  {195b2754-0d22-4980-a180-5978e7767b88}, !- Handle
  0600|2200|SuperMarket|default|occ Winter Design Day, !- Name
  {ff0b09c8-2e4b-4c59-a3b1-b2902b044ebb}, !- Schedule Type Limits Name
  ,                                       !- Interpolate to Timestep
  24,                                     !- Hour 1
  0,                                      !- Minute 1
  0;                                      !- Value Until Time 1

OS:Schedule:Rule,
  {03666ac7-ea5e-408c-82f0-d45268679e27}, !- Handle
  0600|2200|SuperMarket|default|occ |1/1-12/31|Sat Rule, !- Name
  {3af329ac-dd63-42ed-8648-22c0a6f53767}, !- Schedule Ruleset Name
  0,                                      !- Rule Order
  {c60c05fd-ecde-4b39-8ba8-4c541d1a6706}, !- Day Schedule Name
  ,                                       !- Apply Sunday
  ,                                       !- Apply Monday
  ,                                       !- Apply Tuesday
  ,                                       !- Apply Wednesday
  ,                                       !- Apply Thursday
  ,                                       !- Apply Friday
  Yes,                                    !- Apply Saturday
  ,                                       !- Apply Holiday
  DateRange,                              !- Date Specification Type
  1,                                      !- Start Month
  1,                                      !- Start Day
  12,                                     !- End Month
  31;                                     !- End Day

OS:Schedule:Day,
  {c60c05fd-ecde-4b39-8ba8-4c541d1a6706}, !- Handle
  0600|2200|SuperMarket|default|occ |1/1-12/31|Sat, !- Name
  {ff0b09c8-2e4b-4c59-a3b1-b2902b044ebb}, !- Schedule Type Limits Name
  ,                                       !- Interpolate to Timestep
  6,                                      !- Hour 1
  0,                                      !- Minute 1
  0,                                      !- Value Until Time 1
  8,                                      !- Hour 2
  0,                                      !- Minute 2
  0.1,                                    !- Value Until Time 2
  9,                                      !- Hour 3
  0,                                      !- Minute 3
  0.2,                                    !- Value Until Time 3
  10,                                     !- Hour 4
  0,                                      !- Minute 4
  0.5,                                    !- Value Until Time 4
  11,                                     !- Hour 5
  0,                                      !- Minute 5
  0.6,                                    !- Value Until Time 5
  17,                                     !- Hour 6
  0,                                      !- Minute 6
  0.8,                                    !- Value Until Time 6
  18,                                     !- Hour 7
  0,                                      !- Minute 7
  0.6,                                    !- Value Until Time 7
  21,                                     !- Hour 8
  0,                                      !- Minute 8
  0.2,                                    !- Value Until Time 8
  22,                                     !- Hour 9
  0,                                      !- Minute 9
  0.1,                                    !- Value Until Time 9
  24,                                     !- Hour 10
  0,                                      !- Minute 10
  0;                                      !- Value Until Time 10

OS:Schedule:Rule,
  {334de8c4-477b-4755-b115-095f9b11579e}, !- Handle
  0600|2200|SuperMarket|default|occ |1/1-12/31|Sun Rule, !- Name
  {3af329ac-dd63-42ed-8648-22c0a6f53767}, !- Schedule Ruleset Name
  1,                                      !- Rule Order
  {d015cce5-0695-43a9-baff-f0d2b589e28c}, !- Day Schedule Name
  Yes,                                    !- Apply Sunday
  ,                                       !- Apply Monday
  ,                                       !- Apply Tuesday
  ,                                       !- Apply Wednesday
  ,                                       !- Apply Thursday
  ,                                       !- Apply Friday
  ,                                       !- Apply Saturday
  ,                                       !- Apply Holiday
  DateRange,                              !- Date Specification Type
  1,                                      !- Start Month
  1,                                      !- Start Day
  12,                                     !- End Month
  31;                                     !- End Day

OS:Schedule:Day,
  {d015cce5-0695-43a9-baff-f0d2b589e28c}, !- Handle
  0600|2200|SuperMarket|default|occ |1/1-12/31|Sun, !- Name
  {ff0b09c8-2e4b-4c59-a3b1-b2902b044ebb}, !- Schedule Type Limits Name
  ,                                       !- Interpolate to Timestep
  6,                                      !- Hour 1
  0,                                      !- Minute 1
  0,                                      !- Value Until Time 1
  10,                                     !- Hour 2
  0,                                      !- Minute 2
  0.1,                                    !- Value Until Time 2
  12,                                     !- Hour 3
  0,                                      !- Minute 3
  0.2,                                    !- Value Until Time 3
  17,                                     !- Hour 4
  0,                                      !- Minute 4
  0.4,                                    !- Value Until Time 4
  18,                                     !- Hour 5
  0,                                      !- Minute 5
  0.2,                                    !- Value Until Time 5
  22,                                     !- Hour 6
  0,                                      !- Minute 6
  0.1,                                    !- Value Until Time 6
  24,                                     !- Hour 7
  0,                                      !- Minute 7
  0;                                      !- Value Until Time 7

OS:Schedule:Ruleset,
  {c279e6ad-8296-4270-a6b1-88ac0a558ec7}, !- Handle
  0600|2200|SuperMarket|default|swh_target_temp, !- Name
  {fba15d78-ad92-4f26-abe5-085b817769b8}, !- Schedule Type Limits Name
  {06250a6a-6742-45d6-a8ab-c5dd7fb2811b}, !- Default Day Schedule Name
  {9e8a18ed-b929-4071-aec7-a89ba2f7d449}, !- Summer Design Day Schedule Name
  {f3724043-51fa-413a-9ef1-0cc8f3023d94}; !- Winter Design Day Schedule Name

OS:ScheduleTypeLimits,
  {fba15d78-ad92-4f26-abe5-085b817769b8}, !- Handle
  Temperature Schedule Type Limits,       !- Name
  ,                                       !- Lower Limit Value {BasedOnField A4}
  ,                                       !- Upper Limit Value {BasedOnField A4}
  Continuous,                             !- Numeric Type
  Temperature;                            !- Unit Type

OS:Schedule:Day,
  {06250a6a-6742-45d6-a8ab-c5dd7fb2811b}, !- Handle
  0600|2200|SuperMarket|default|swh_target_temp |default, !- Name
  {fba15d78-ad92-4f26-abe5-085b817769b8}, !- Schedule Type Limits Name
  ,                                       !- Interpolate to Timestep
  24,                                     !- Hour 1
  0,                                      !- Minute 1
  60.0000000000001;                       !- Value Until Time 1

OS:Schedule:Day,
  {9e8a18ed-b929-4071-aec7-a89ba2f7d449}, !- Handle
  0600|2200|SuperMarket|default|swh_target_temp Summer Design Day, !- Name
  {fba15d78-ad92-4f26-abe5-085b817769b8}, !- Schedule Type Limits Name
  ,                                       !- Interpolate to Timestep
  24,                                     !- Hour 1
  0,                                      !- Minute 1
  60.0000000000001;                       !- Value Until Time 1

OS:Schedule:Day,
  {f3724043-51fa-413a-9ef1-0cc8f3023d94}, !- Handle
  0600|2200|SuperMarket|default|swh_target_temp Winter Design Day, !- Name
  {fba15d78-ad92-4f26-abe5-085b817769b8}, !- Schedule Type Limits Name
  ,                                       !- Interpolate to Timestep
  24,                                     !- Hour 1
  0,                                      !- Minute 1
  60.0000000000001;                       !- Value Until Time 1

OS:Schedule:Ruleset,
  {9530b86c-b15c-40aa-b895-2c0661dc0a60}, !- Handle
  0600|2200|SuperMarket|default|htg_setpoint, !- Name
  {30e5a96d-b8d9-4d87-96dd-443b16204520}, !- Schedule Type Limits Name
  {f7d5a0fc-2fa9-44dc-a870-e06324c9563b}, !- Default Day Schedule Name
  {c42511d3-9203-4536-a26b-e51dd7c03660}, !- Summer Design Day Schedule Name
  {1a3869e2-ba4c-4288-b5ef-a19a203fb118}; !- Winter Design Day Schedule Name

OS:ScheduleTypeLimits,
  {30e5a96d-b8d9-4d87-96dd-443b16204520}, !- Handle
  Thermostat Heating Setpoint Schedule Type Limits, !- Name
  0,                                      !- Lower Limit Value {BasedOnField A4}
  100,                                    !- Upper Limit Value {BasedOnField A4}
  Continuous,                             !- Numeric Type
  Temperature;                            !- Unit Type

OS:Schedule:Day,
  {f7d5a0fc-2fa9-44dc-a870-e06324c9563b}, !- Handle
  0600|2200|SuperMarket|default|htg_setpoint |default, !- Name
  {30e5a96d-b8d9-4d87-96dd-443b16204520}, !- Schedule Type Limits Name
  ,                                       !- Interpolate to Timestep
  24,                                     !- Hour 1
  0,                                      !- Minute 1
  21.0000000000001;                       !- Value Until Time 1

OS:Schedule:Day,
  {c42511d3-9203-4536-a26b-e51dd7c03660}, !- Handle
  0600|2200|SuperMarket|default|htg_setpoint Summer Design Day, !- Name
  {30e5a96d-b8d9-4d87-96dd-443b16204520}, !- Schedule Type Limits Name
  ,                                       !- Interpolate to Timestep
  24,                                     !- Hour 1
  0,                                      !- Minute 1
  21.0000000000001;                       !- Value Until Time 1

OS:Schedule:Day,
  {1a3869e2-ba4c-4288-b5ef-a19a203fb118}, !- Handle
  0600|2200|SuperMarket|default|htg_setpoint Winter Design Day, !- Name
  {30e5a96d-b8d9-4d87-96dd-443b16204520}, !- Schedule Type Limits Name
  ,                                       !- Interpolate to Timestep
  24,                                     !- Hour 1
  0,                                      !- Minute 1
  21.0000000000001;                       !- Value Until Time 1

OS:Schedule:Ruleset,
  {7f73e7b5-eb33-444c-8b01-91481163d9c2}, !- Handle
  0600|2200|SuperMarket|default|swh,      !- Name
  {2c507b29-1b8e-436d-9b4a-bf01af71d8e4}, !- Schedule Type Limits Name
  {1a29f721-d744-4196-b9a2-8353f10ee5f6}, !- Default Day Schedule Name
  {bf7a6265-a799-4288-84fd-156740a35fba}, !- Summer Design Day Schedule Name
  {418d3eb4-3c06-4f75-9317-f2067b989ef0}; !- Winter Design Day Schedule Name

OS:ScheduleTypeLimits,
  {2c507b29-1b8e-436d-9b4a-bf01af71d8e4}, !- Handle