
OS:Version,
  {d24f04c6-9dff-4a82-b6bf-19c76ddb09f7}, !- Handle
  1.6.0;                                  !- Version Identifier

OS:ClimateZones,
  {135edfab-17e7-40db-a436-27d385a8cd6d}, !- Handle
  ,                                       !- Active Institution
  ,                                       !- Active Year
  ASHRAE,                                 !- Climate Zone Institution Name 1
  ANSI/ASHRAE Standard 169,               !- Climate Zone Document Name 1
  2006,                                   !- Climate Zone Document Year 1
  ,                                       !- Climate Zone Value 1
  CEC,                                    !- Climate Zone Institution Name 2
  California Climate Zone Descriptions,   !- Climate Zone Document Name 2
  1995,                                   !- Climate Zone Document Year 2
  ;                                       !- Climate Zone Value 2

OS:YearDescription,
  {513d8dda-86cb-442a-b01c-1f7f0e0ac70e}; !- Handle

OS:RadianceParameters,
  {270a96f1-3c86-4b75-a667-cdf22790e2c8}, !- Handle
  1,                                      !- Accumulated Rays per Record
  0,                                      !- Direct Threshold
  1,                                      !- Direct Certainty
  1,                                      !- Direct Jitter
  1,                                      !- Direct Pretest
  6,                                      !- Ambient Bounces VMX
  2,                                      !- Ambient Bounces DMX
  4050,                                   !- Ambient Divisions VMX
  512,                                    !- Ambient Divisions DMX
  256,                                    !- Ambient Supersamples
  0.001,                                  !- Limit Weight VMX
  0.001,                                  !- Limit Weight DMX
  500,                                    !- Klems Sampling Density
  146;                                    !- Sky Discretization Resolution

OS:SimulationControl,
  {2c487a4c-bac9-4ac5-b669-1e49d9da7c2b}, !- Handle
  ,                                       !- Do Zone Sizing Calculation
  ,                                       !- Do System Sizing Calculation
  ,                                       !- Do Plant Sizing Calculation
  No,                                     !- Run Simulation for Sizing Periods
  ,                                       !- Run Simulation for Weather File Run Periods
  0.04,                                   !- Loads Convergence Tolerance Value
  ,                                       !- Temperature Convergence Tolerance Value {deltaC}
  ,                                       !- Solar Distribution
  ,                                       !- Maximum Number of Warmup Days
  2;                                      !- Minimum Number of Warmup Days

OS:Sizing:Parameters,
  {dde5af6f-7923-4600-a28a-7556673a0266}, !- Handle
  1.25,                                   !- Heating Sizing Factor
  1.15;                                   !- Cooling Sizing Factor

OS:ProgramControl,
  {05027a99-f2b3-4aeb-afc6-1425fbb4371d}; !- Handle

OS:Timestep,
  {4ebc9f1e-4707-402e-9844-67eb1ffbd522}, !- Handle
  2;                                      !- Number of Timesteps per Hour

OS:OutputControl:ReportingTolerances,
  {65797aa2-06a9-45fe-b69d-bc6e060399d3}; !- Handle

OS:ConvergenceLimits,
  {9fc11aba-8822-4f3d-970c-46391ba4040d}; !- Handle

OS:ShadowCalculation,
  {ca758bea-4416-4626-9bba-3d8795c79bd6}, !- Handle
  7,                                      !- Calculation Frequency
  15000;                                  !- Maximum Figures in Shadow Overlap Calculations

OS:SurfaceConvectionAlgorithm:Inside,
  {aaabfc36-718a-4ab0-b622-f186ebb45230}, !- Handle
  TARP;                                   !- Algorithm

OS:SurfaceConvectionAlgorithm:Outside,
  {9a0a9f6f-4bbd-4b12-a121-9492a1fcd7d6}, !- Handle
  DOE-2;                                  !- Algorithm

OS:HeatBalanceAlgorithm,
  {9d93e563-e1e0-46d7-9e39-d1c8aceb7212}, !- Handle
  ConductionTransferFunction,             !- Algorithm
  200;                                    !- Surface Temperature Upper Limit {F}

OS:ZoneAirHeatBalanceAlgorithm,
  {8520d93e-310f-4696-9bcd-36228bfdd743}, !- Handle
  AnalyticalSolution;                     !- Algorithm

OS:ZoneAirContaminantBalance,
  {eb5fc3ae-fb22-4160-8fcb-3e3b22b000d3}; !- Handle

OS:ZoneCapacitanceMultiplier:ResearchSpecial,
  {4020ce4f-5a7a-4849-8028-8305d7b751b1}, !- Handle
  ,                                       !- Temperature Capacity Multiplier
  ,                                       !- Humidity Capacity Multiplier
  ;                                       !- Carbon Dioxide Capacity Multiplier

OS:RunPeriod,
  {28df894d-6af9-4fb8-8f56-df1753344aa3}, !- Handle
  Run Period 1,                           !- Name
  1,                                      !- Begin Month
  1,                                      !- Begin Day of Month
  12,                                     !- End Month
  31,                                     !- End Day of Month
  ,                                       !- Use Weather File Holidays and Special Days
  ,                                       !- Use Weather File Daylight Saving Period
  ,                                       !- Apply Weekend Holiday Rule
  ,                                       !- Use Weather File Rain Indicators
  ,                                       !- Use Weather File Snow Indicators
  ;                                       !- Number of Times Runperiod to be Repeated

OS:Building,
  {bf305633-c5a1-4881-9edf-ca5e1a8e1274}, !- Handle
  Building 1,                             !- Name
  ,                                       !- Building Sector Type
  ,                                       !- North Axis {deg}
  ,                                       !- Nominal Floor to Floor Height {m}
  ,                                       !- Space Type Name
  ,                                       !- Default Construction Set Name
  {e4cee518-2529-4383-9cc9-9f97ec9e5c06}, !- Default Schedule Set Name
  ,                                       !- Standards Number of Stories
  ,                                       !- Standards Number of Above Ground Stories
  SuperMarket;                            !- Standards Building Type

OS:LifeCycleCost:Parameters,
  {231cf8a0-f0e7-4251-a99f-11f0d464e661}, !- Handle
  FEMP,                                   !- Analysis Type
  ,                                       !- Discounting Convention
  ,                                       !- Inflation Approach
  ,                                       !- Real Discount Rate
  ,                                       !- Nominal Discount Rate
  ,                                       !- Inflation
  ,                                       !- Base Date Month
  ,                                       !- Base Date Year
  ,                                       !- Service Date Month
  ,                                       !- Service Date Year
  ,                                       !- Length of Study Period in Years
  ,                                       !- Tax Rate
  ,                                       !- Depreciation Method
  Yes;                                    !- Use NIST Fuel Escalation Rates

OS:Facility,
  {3ba8e45b-b833-44eb-a723-ea6c3946dc96}; !- Handle

OS:SpaceType,
  {e38abf16-024b-4918-ad6d-5fe4e29c6b5f}, !- Handle
  SuperMarket|SalesProduce|DOE Ref 1980-2004|ASHRAE 169-2006-5A, !- Name
  {b41c145d-0df9-4e8f-97d6-8265ab0656c8}, !- Default Construction Set Name
  {841e4611-fdba-4cf2-833c-dee73ef508de}, !- Default Schedule Set Name
  {7aea430c-30b9-45bb-8b58-f07234d523ad}, !- Group Rendering Name
  {69f937ad-2588-4159-8cf1-72559d33886d}, !- Design Specification Outdoor Air Object Name
  SuperMarket,                            !- Standards Building Type
  SalesProduce;                           !- Standards Space Type

OS:Rendering:Color,
  {7aea430c-30b9-45bb-8b58-f07234d523ad}, !- Handle
  Rendering Color 1,                      !- Name
  230,                                    !- Rendering Red Value
  196,                                    !- Rendering Green Value
  120;                                    !- Rendering Blue Value

OS:SpaceType,
  {a6f0406b-6f39-4f38-9508-abe54d9bbb96}, !- Handle
  SuperMarket|DryStorage|DOE Ref 1980-2004|ASHRAE 169-2006-5A, !- Name
  {b41c145d-0df9-4e8f-97d6-8265ab0656c8}, !- Default Construction Set Name
  {7c248e25-0ec2-4452-8bbf-1b05863858b2}, !- Default Schedule Set Name
  {565f6398-831b-4455-95be-e1d78d06431c}, !- Group Rendering Name
  {841a996c-0718-45f0-a909-d18d1976160c}, !- Design Specification Outdoor Air Object Name
  SuperMarket,                            !- Standards Building Type
  DryStorage;                             !- Standards Space Type

OS:Rendering:Color,
  {565f6398-831b-4455-95be-e1d78d06431c}, !- Handle
  Rendering Color 2,                      !- Name
  120,                                    !- Rendering Red Value
  149,                                    !- Rendering Green Value
  230;                                    !- Rendering Blue Value

OS:SpaceType,
  {6eb929cb-1b69-41f6-aafc-6cbbb78fb39f}, !- Handle
  SuperMarket|DeliBakery|DOE Ref 1980-2004|ASHRAE 169-2006-5A, !- Name
  {b41c145d-0df9-4e8f-97d6-8265ab0656c8}, !- Default Construction Set Name
  {e51247d1-8233-43f9-96eb-502a6d041479}, !- Default Schedule Set Name
  {4e878f77-d789-4f71-80a2-d736f99774d0}, !- Group Rendering Name
  {19e3f738-dc15-466b-9ad2-4c11cda4b006}, !- Design Specification Outdoor Air Object Name
  SuperMarket,                            !- Standards Building Type
  DeliBakery;                             !- Standards Space Type

OS:Rendering:Color,
  {4e878f77-d789-4f71-80a2-d736f99774d0}, !- Handle
  Rendering Color 3,                      !- Name
  31,                                     !- Rendering Red Value
  169,                                    !- Rendering Green Value
  34;                                     !- Rendering Blue Value

OS:SpaceType,
  {9abadae5-0b66-471b-8c3f-9d9ea0b2144c}, !- Handle
  SuperMarket|Office|DOE Ref 1980-2004|ASHRAE 169-2006-5A, !- Name
  {b41c145d-0df9-4e8f-97d6-8265ab0656c8}, !- Default Construction Set Name
  {4246afcf-28a7-4060-94be-eb0e67ff208c}, !- Default Schedule Set Name
  {ba004c79-6cb3-4ca2-8e4e-ee587fa8df06}, !- Group Rendering Name
  {66373e63-fcbe-432d-9036-f789d759a155}, !- Design Specification Outdoor Air Object Name
  SuperMarket,                            !- Standards Building Type
  Office;                                 !- Standards Space Type

OS:Rendering:Color,
  {ba004c79-6cb3-4ca2-8e4e-ee587fa8df06}, !- Handle
  Rendering Color 4,                      !- Name
  120,                                    !- Rendering Red Value
  230,                                    !- Rendering Green Value
  199;                                    !- Rendering Blue Value

OS:Schedule:Ruleset,
  {909d1d65-0362-42e0-aad0-c66102110992}, !- Handle
  0600|2200|SuperMarket|default|hoo,      !- Name
  {b1f4023b-92fc-4e6b-b756-b221f9e56c0b}, !- Schedule Type Limits Name
  {4b25c56e-caca-46b6-a61c-e9a14ffa57b2}, !- Default Day Schedule Name
  {303e3392-b3df-4334-83f8-d1e55b6cb0e2}, !- Summer Design Day Schedule Name
  {04dc64b2-c008-4772-a131-dc6663a350bb}; !- Winter Design Day Schedule Name

OS:Schedule:Day,
  {4b25c56e-caca-46b6-a61c-e9a14ffa57b2}, !- Handle
  0600|2200|SuperMarket|default|hoo Schedule Week Day, !- Name
  {b1f4023b-92fc-4e6b-b756-b221f9e56c0b}, !- Schedule Type Limits Name
  ,                                       !- Interpolate to Timestep
  6,                                      !- Hour 1
  0,                                      !- Minute 1
  0,                                      !- Value Until Time 1
  22,                                     !- Hour 2
  0,                                      !- Minute 2
  1,                                      !- Value Until Time 2
  24,                                     !- Hour 3
  0,                                      !- Minute 3
  0;                                      !- Value Until Time 3

OS:Schedule:Day,
  {a8aefbad-4bf9-4a16-af28-f6d56e8c1ee7}, !- Handle
  Schedule Day 2,                         !- Name
  ,                                       !- Schedule Type Limits Name
  ,                                       !- Interpolate to Timestep
  24,                                     !- Hour 1
  0,                                      !- Minute 1
  0;                                      !- Value Until Time 1

OS:Schedule:Day,
  {04dc64b2-c008-4772-a131-dc6663a350bb}, !- Handle
  0600|2200|SuperMarket|default|hoo Winter Design Day, !- Name
  {b1f4023b-92fc-4e6b-b756-b221f9e56c0b}, !- Schedule Type Limits Name
  ,                                       !- Interpolate to Timestep
  24,                                     !- Hour 1
  0,                                      !- Minute 1
  0;                                      !- Value Until Time 1

OS:Schedule:Day,
  {c889338d-00e8-406c-9d11-45eb823d9e2a}, !- Handle
  Schedule Day 3,                         !- Name
  ,                                       !- Schedule Type Limits Name
  ,                                       !- Interpolate to Timestep
  24,                                     !- Hour 1
  0,                                      !- Minute 1
  0;                                      !- Value Until Time 1

OS:Schedule:Day,
  {303e3392-b3df-4334-83f8-d1e55b6cb0e2}, !- Handle
  0600|2200|SuperMarket|default|hoo Summer Design Day, !- Name
  {b1f4023b-92fc-4e6b-b756-b221f9e56c0b}, !- Schedule Type Limits Name
  ,                                       !- Interpolate to Timestep
  24,                                     !- Hour 1
  0,                                      !- Minute 1
  1;                                      !- Value Until Time 1

OS:DefaultScheduleSet,
  {e4cee518-2529-4383-9cc9-9f97ec9e5c06}, !- Handle
  Building Hours of Operation,            !- Name
  {909d1d65-0362-42e0-aad0-c66102110992}, !- Hours of Operation Schedule Name
  ,                                       !- Number of People Schedule Name
  ,                                       !- People Activity Level Schedule Name
  ,                                       !- Lighting Schedule Name
  ,                                       !- Electric Equipment Schedule Name
  ,                                       !- Gas Equipment Schedule Name
  ,                                       !- Hot Water Equipment Schedule Name
  ,                                       !- Infiltration Schedule Name
  ,                                       !- Steam Equipment Schedule Name
  ;                                       !- Other Equipment Schedule Name

OS:ScheduleTypeLimits,
  {b1f4023b-92fc-4e6b-b756-b221f9e56c0b}, !- Handle
  OnOff,                                  !- Name
  0,                                      !- Lower Limit Value {BasedOnField A4}
  1,                                      !- Upper Limit Value {BasedOnField A4}
  Discrete,                               !- Numeric Type
  Availability;                           !- Unit Type

OS:Schedule:Ruleset,
  {1e78d7c7-943b-4031-839e-9f8abf32a0ce}, !- Handle
  0600|2200|SuperMarket|default|thermal_ctrl, !- Name
  {cb9694a6-161a-4378-9e0c-2e1e0e345623}, !- Schedule Type Limits Name
  {60215f12-1ea5-4e58-a838-f7cbe3292882}, !- Default Day Schedule Name
  {44d8e5ff-5c2d-48dc-af40-cc15f8f9da74}, !- Summer Design Day Schedule Name
  {1d6b29a3-0de4-4eaf-a927-00b63816b882}; !- Winter Design Day Schedule Name

OS:ScheduleTypeLimits,
  {cb9694a6-161a-4378-9e0c-2e1e0e345623}, !- Handle
  Dimensionless Schedule Type Limits,     !- Name
  ,                                       !- Lower Limit Value {BasedOnField A4}
  ,                                       !- Upper Limit Value {BasedOnField A4}
  Continuous,                             !- Numeric Type
  Dimensionless;                          !- Unit Type

OS:Schedule:Day,
  {60215f12-1ea5-4e58-a838-f7cbe3292882}, !- Handle
  0600|2200|SuperMarket|default|thermal_ctrl |default, !- Name
  {cb9694a6-161a-4378-9e0c-2e1e0e345623}, !- Schedule Type Limits Name
  ,                                       !- Interpolate to Timestep
  24,                                     !- Hour 1
  0,                                      !- Minute 1
  4;                                      !- Value Until Time 1

OS:Schedule:Day,
  {44d8e5ff-5c2d-48dc-af40-cc15f8f9da74}, !- Handle
  0600|2200|SuperMarket|default|thermal_ctrl Summer Design Day, !- Name
  {cb9694a6-161a-4378-9e0c-2e1e0e345623}, !- Schedule Type Limits Name
  ,                                       !- Interpolate to Timestep
  24,                                     !- Hour 1
  0,                                      !- Minute 1
  4;                                      !- Value Until Time 1

OS:Schedule:Day,
  {1d6b29a3-0de4-4eaf-a927-00b63816b882}, !- Handle
  0600|2200|SuperMarket|default|thermal_ctrl Winter Design Day, !- Name
  {cb9694a6-161a-4378-9e0c-2e1e0e345623}, !- Schedule Type Limits Name
  ,                                       !- Interpolate to Timestep
  24,                                     !- Hour 1
  0,                                      !- Minute 1
  4;                                      !- Value Until Time 1

OS:Schedule:Ruleset,
  {9592c7e2-9d47-4a2f-baca-111c515e0061}, !- Handle
  0600|2200|SuperMarket|default|ext_lighting, !- Name
  {8f9e88d9-997b-4e18-99c7-b1d011a310e4}, !- Schedule Type Limits Name
  {2201cea9-47ed-4508-8076-b0bfb5c137d1}, !- Default Day Schedule Name
  {d0bad213-f82a-49da-a02b-33df806cf632}, !- Summer Design Day Schedule Name
  {831cde42-b638-4a3d-93c3-cedd0610e508}; !- Winter Design Day Schedule Name

OS:ScheduleTypeLimits,
  {8f9e88d9-997b-4e18-99c7-b1d011a310e4}, !- Handle
  Lights Schedule Type Limits,            !- Name
  0,                                      !- Lower Limit Value {BasedOnField A4}
  1,                                      !- Upper Limit Value {BasedOnField A4}
  Continuous,                             !- Numeric Type
  Dimensionless;                          !- Unit Type

OS:Schedule:Day,
  {2201cea9-47ed-4508-8076-b0bfb5c137d1}, !- Handle
  0600|2200|SuperMarket|default|ext_lighting |default, !- Name
  {8f9e88d9-997b-4e18-99c7-b1d011a310e4}, !- Schedule Type Limits Name
  ,                                       !- Interpolate to Timestep
  24,                                     !- Hour 1
  0,                                      !- Minute 1
  1;                                      !- Value Until Time 1

OS:Schedule:Day,
  {d0bad213-f82a-49da-a02b-33df806cf632}, !- Handle
  0600|2200|SuperMarket|default|ext_lighting Summer Design Day, !- Name
  {8f9e88d9-997b-4e18-99c7-b1d011a310e4}, !- Schedule Type Limits Name
  ,                                       !- Interpolate to Timestep
  24,                                     !- Hour 1
  0,                                      !- Minute 1
  1;                                      !- Value Until Time 1

OS:Schedule:Day,
  {831cde42-b638-4a3d-93c3-cedd0610e508}, !- Handle
  0600|2200|SuperMarket|default|ext_lighting Winter Design Day, !- Name
  {8f9e88d9-997b-4e18-99c7-b1d011a310e4}, !- Schedule Type Limits Name
  ,                                       !- Interpolate to Timestep
  24,                                     !- Hour 1
  0,                                      !- Minute 1
  1;                                      !- Value Until Time 1

OS:Schedule:Ruleset,
  {73be9ca4-0bb1-41db-8c73-3d0dd074749f}, !- Handle
  0600|2200|SuperMarket|default|rh,       !- Name
  {cb9694a6-161a-4378-9e0c-2e1e0e345623}, !- Schedule Type Limits Name
  {8b6ddc92-f707-421f-a00d-96e7ab9df543}, !- Default Day Schedule Name
  {356eb776-d1ef-4407-b62d-7f24bf0e861b}, !- Summer Design Day Schedule Name
  {92785be0-8919-4b3c-ada4-0ea3855d40df}; !- Winter Design Day Schedule Name

OS:Schedule:Day,
  {8b6ddc92-f707-421f-a00d-96e7ab9df543}, !- Handle
  0600|2200|SuperMarket|default|rh |default, !- Name
  {cb9694a6-161a-4378-9e0c-2e1e0e345623}, !- Schedule Type Limits Name
  ,                                       !- Interpolate to Timestep
  24,                                     !- Hour 1
  0,                                      !- Minute 1
  50;                                     !- Value Until Time 1

OS:Schedule:Day,
  {356eb776-d1ef-4407-b62d-7f24bf0e861b}, !- Handle
  0600|2200|SuperMarket|default|rh Summer Design Day, !- Name
  {cb9694a6-161a-4378-9e0c-2e1e0e345623}, !- Schedule Type Limits Name
  ,                                       !- Interpolate to Timestep
  24,                                     !- Hour 1
  0,                                      !- Minute 1
  50;                                     !- Value Until Time 1

OS:Schedule:Day,
  {92785be0-8919-4b3c-ada4-0ea3855d40df}, !- Handle
  0600|2200|SuperMarket|default|rh Winter Design Day, !- Name
  {cb9694a6-161a-4378-9e0c-2e1e0e345623}, !- Schedule Type Limits Name
  ,                                       !- Interpolate to Timestep
  24,                                     !- Hour 1
  0,                                      !- Minute 1
  50;                                     !- Value Until Time 1

OS:Schedule:Ruleset,
  {b371670b-b03f-4582-81a7-37db2e8094b9}, !- Handle
  0600|2200|SuperMarket|default|occ,      !- Name
  {419cdce7-d668-4690-aab0-ff1c59f9ea94}, !- Schedule Type Limits Name
  {985dd39d-183b-4e25-badf-759d52bf75d2}, !- Default Day Schedule Name
  {9a546ed9-3101-472a-b6bc-c1efef6d7db8}, !- Summer Design Day Schedule Name
  {64b46fe7-90a7-49f7-9650-2ffa6a772aa5}; !- Winter Design Day Schedule Name

OS:ScheduleTypeLimits,
  {419cdce7-d668-4690-aab0-ff1c59f9ea94}, !- Handle
  Occupancy Schedule Type Limits,         !- Name
  0,                                      !- Lower Limit Value {BasedOnField A4}
  1,                                      !- Upper Limit Value {BasedOnField A4}
  Continuous,                             !- Numeric Type
  Dimensionless;                          !- Unit Type

OS:Schedule:Day,
  {985dd39d-183b-4e25-badf-759d52bf75d2}, !- Handle
  0600|2200|SuperMarket|default|occ |default, !- Name
  {419cdce7-d668-4690-aab0-ff1c59f9ea94}, !- Schedule Type Limits Name
  ,                                       !- Interpolate to Timestep
  6,                                      !- Hour 1
  0,                                      !- Minute 1
  0,                                      !- Value Until Time 1
  8,                                      !- Hour 2
  0,                                      !- Minute 2
  0.1,                                    !- Value Until Time 2
  9,                                      !- Hour 3
  0,                                      !- Minute 3
  0.2,                                    !- Value Until Time 3
  11,                                     !- Hour 4
  0,                                      !- Minute 4
  0.5,                                    !- Value Until Time 4
  15,                                     !- Hour 5
  0,                                      !- Minute 5
  0.7,                                    !- Value Until Time 5
  16,                                     !- Hour 6
  0,                                      !- Minute 6
  0.8,                                    !- Value Until Time 6
  17,                                     !- Hour 7
  0,                                      !- Minute 7
  0.7,                                    !- Value Until Time 7
  19,                                     !- Hour 8
  0,                                      !- Minute 8
  0.5,                                    !- Value Until Time 8
  22,                                     !- Hour 9
  0,                                      !- Minute 9
  0.3,                                    !- Value Until Time 9
  24,                                     !- Hour 10
  0,                                      !- Minute 10
  0;                                      !- Value Until Time 10

OS:Schedule:Day,
  {9a546ed9-3101-472a-b6bc-c1efef6d7db8}, !- Handle
  0600|2200|SuperMarket|default|occ Summer Design Day, !- Name
  {419cdce7-d668-4690-aab0-ff1c59f9ea94}, !- Schedule Type Limits Name
  ,                                       !- Interpolate to Timestep
  6,                                      !- Hour 1
  0,                                      !- Minute 1
  0,                                      !- Value Until Time 1
  8,                                      !- Hour 2
  0,                                      !- Minute 2
  0.1,                                    !- Value Until Time 2
  9,                                      !- Hour 3
  0,                                      !- Minute 3
  0.2,                                    !- Value Until Time 3
  22,                                     !- Hour 4
  0,                                      !- Minute 4
  1,                                      !- Value Until Time 4
  24,                                     !- Hour 5
  0,                                      !- Minute 5
  0;                                      !- Value Until Time 5

OS:Schedule:Day,
  {64b46fe7-90a7-49f7-9650-2ffa6a772aa5}, !- Handle
  0600|2200|SuperMarket|default|occ Winter Design Day, !- Name
  {419cdce7-d668-4690-aab0-ff1c59f9ea94}, !- Schedule Type Limits Name
  ,                                       !- Interpolate to Timestep
  24,                                     !- Hour 1
  0,                                      !- Minute 1
  0;                                      !- Value Until Time 1

OS:Schedule:Rule,
  {fd4ad105-23a2-4aa6-9f33-3072a3d71275}, !- Handle
  0600|2200|SuperMarket|default|occ |1/1-12/31|Sat Rule, !- Name
  {b371670b-b03f-4582-81a7-37db2e8094b9}, !- Schedule Ruleset Name
  0,                                      !- Rule Order
  {758f66f4-d86b-4b8b-b932-4b0f7117e59c}, !- Day Schedule Name
  ,                                       !- Apply Sunday
  ,                                       !- Apply Monday
  ,                                       !- Apply Tuesday
  ,                                       !- Apply Wednesday
  ,                                       !- Apply Thursday
  ,                                       !- Apply Friday
  Yes,                                    !- Apply Saturday
  ,                                       !- Apply Holiday
  DateRange,                              !- Date Specification Type
  1,                                      !- Start Month
  1,                                      !- Start Day
  12,                                     !- End Month
  31;                                     !- End Day

OS:Schedule:Day,
  {758f66f4-d86b-4b8b-b932-4b0f7117e59c}, !- Handle
  0600|2200|SuperMarket|default|occ |1/1-12/31|Sat, !- Name
  {419cdce7-d668-4690-aab0-ff1c59f9ea94}, !- Schedule Type Limits Name
  ,                                       !- Interpolate to Timestep
  6,                                      !- Hour 1
  0,                                      !- Minute 1
  0,                                      !- Value Until Time 1
  8,                                      !- Hour 2
  0,                                      !- Minute 2
  0.1,                                    !- Value Until Time 2
  9,                                      !- Hour 3
  0,                                      !- Minute 3
  0.2,                                    !- Value Until Time 3
  10,                                     !- Hour 4
  0,                                      !- Minute 4
  0.5,                                    !- Value Until Time 4
  11,                                     !- Hour 5
  0,                                      !- Minute 5
  0.6,                                    !- Value Until Time 5
  17,                                     !- Hour 6
  0,                                      !- Minute 6
  0.8,                                    !- Value Until Time 6
  18,                                     !- Hour 7
  0,                                      !- Minute 7
  0.6,                                    !- Value Until Time 7
  21,                                     !- Hour 8
  0,                                      !- Minute 8
  0.2,                                    !- Value Until Time 8
  22,                                     !- Hour 9
  0,                                      !- Minute 9
  0.1,                                    !- Value Until Time 9
  24,                                     !- Hour 10
  0,                                      !- Minute 10
  0;                                      !- Value Until Time 10

OS:Schedule:Rule,
  {085eae1c-818b-4812-b6ec-3c62204ea986}, !- Handle
  0600|2200|SuperMarket|default|occ |1/1-12/31|Sun Rule, !- Name
  {b371670b-b03f-4582-81a7-37db2e8094b9}, !- Schedule Ruleset Name
  1,                                      !- Rule Order
  {d9458c1d-6e62-4253-8835-5df226ba5418}, !- Day Schedule Name
  Yes,                                    !- Apply Sunday
  ,                                       !- Apply Monday
  ,                                       !- Apply Tuesday
  ,                                       !- Apply Wednesday
  ,                                       !- Apply Thursday
  ,                                       !- Apply Friday
  ,                                       !- Apply Saturday
  ,                                       !- Apply Holiday
  DateRange,                              !- Date Specification Type
  1,                                      !- Start Month
  1,                                      !- Start Day
  12,                                     !- End Month
  31;                                     !- End Day

OS:Schedule:Day,
  {d9458c1d-6e62-4253-8835-5df226ba5418}, !- Handle
  0600|2200|SuperMarket|default|occ |1/1-12/31|Sun, !- Name
  {419cdce7-d668-4690-aab0-ff1c59f9ea94}, !- Schedule Type Limits Name
  ,                                       !- Interpolate to Timestep