
OS:Version,
  {69bb4339-b1d7-4b34-aa50-763fa153bf90}, !- Handle
  1.5.5;                                  !- Version Identifier

OS:ClimateZones,
  {135edfab-17e7-40db-a436-27d385a8cd6d}, !- Handle
  ,                                       !- Active Institution
  ,                                       !- Active Year
  ASHRAE,                                 !- Climate Zone Institution Name 1
  ANSI/ASHRAE Standard 169,               !- Climate Zone Document Name 1
  2006,                                   !- Climate Zone Document Year 1
  ,                                       !- Climate Zone Value 1
  CEC,                                    !- Climate Zone Institution Name 2
  California Climate Zone Descriptions,   !- Climate Zone Document Name 2
  1995,                                   !- Climate Zone Document Year 2
  ;                                       !- Climate Zone Value 2

OS:YearDescription,
  {513d8dda-86cb-442a-b01c-1f7f0e0ac70e}; !- Handle

OS:RadianceParameters,
  {270a96f1-3c86-4b75-a667-cdf22790e2c8}, !- Handle
  1,                                      !- Accumulated Rays per Record
  0,                                      !- Direct Threshold
  1,                                      !- Direct Certainty
  1,                                      !- Direct Jitter
  1,                                      !- Direct Pretest
  6,                                      !- Ambient Bounces VMX
  2,                                      !- Ambient Bounces DMX
  4050,                                   !- Ambient Divisions VMX
  512,                                    !- Ambient Divisions DMX
  256,                                    !- Ambient Supersamples
  0.001,                                  !- Limit Weight VMX
  0.001,                                  !- Limit Weight DMX
  500,                                    !- Klems Sampling Density
  146;                                    !- Sky Discretization Resolution

OS:SimulationControl,
  {2c487a4c-bac9-4ac5-b669-1e49d9da7c2b}, !- Handle
  ,                                       !- Do Zone Sizing Calculation
  ,                                       !- Do System Sizing Calculation
  ,                                       !- Do Plant Sizing Calculation
  No,                                     !- Run Simulation for Sizing Periods
  ,                                       !- Run Simulation for Weather File Run Periods
  0.04,                                   !- Loads Convergence Tolerance Value
  ,                                       !- Temperature Convergence Tolerance Value {deltaC}
  ,                                       !- Solar Distribution
  ,                                       !- Maximum Number of Warmup Days
  2;                                      !- Minimum Number of Warmup Days

OS:Sizing:Parameters,
  {dde5af6f-7923-4600-a28a-7556673a0266}, !- Handle
  1.25,                                   !- Heating Sizing Factor
  1.15;                                   !- Cooling Sizing Factor

OS:ProgramControl,
  {05027a99-f2b3-4aeb-afc6-1425fbb4371d}; !- Handle

OS:Timestep,
  {4ebc9f1e-4707-402e-9844-67eb1ffbd522}, !- Handle
  2;                                      !- Number of Timesteps per Hour

OS:OutputControl:ReportingTolerances,
  {65797aa2-06a9-45fe-b69d-bc6e060399d3}; !- Handle

OS:ConvergenceLimits,
  {9fc11aba-8822-4f3d-970c-46391ba4040d}; !- Handle

OS:ShadowCalculation,
  {ca758bea-4416-4626-9bba-3d8795c79bd6}, !- Handle
  7,                                      !- Calculation Frequency
  15000;                                  !- Maximum Figures in Shadow Overlap Calculations

OS:SurfaceConvectionAlgorithm:Inside,
  {aaabfc36-718a-4ab0-b622-f186ebb45230}, !- Handle
  TARP;                                   !- Algorithm

OS:SurfaceConvectionAlgorithm:Outside,
  {9a0a9f6f-4bbd-4b12-a121-9492a1fcd7d6}, !- Handle
  DOE-2;                                  !- Algorithm

OS:HeatBalanceAlgorithm,
  {9d93e563-e1e0-46d7-9e39-d1c8aceb7212}, !- Handle
  ConductionTransferFunction,             !- Algorithm
  200;                                    !- Surface Temperature Upper Limit {F}

OS:ZoneAirHeatBalanceAlgorithm,
  {8520d93e-310f-4696-9bcd-36228bfdd743}, !- Handle
  AnalyticalSolution;                     !- Algorithm

OS:ZoneAirContaminantBalance,
  {eb5fc3ae-fb22-4160-8fcb-3e3b22b000d3}; !- Handle

OS:ZoneCapacitanceMultiplier:ResearchSpecial,
  {4020ce4f-5a7a-4849-8028-8305d7b751b1}, !- Handle
  ,                                       !- Temperature Capacity Multiplier
  ,                                       !- Humidity Capacity Multiplier
  ;                                       !- Carbon Dioxide Capacity Multiplier

OS:RunPeriod,
  {28df894d-6af9-4fb8-8f56-df1753344aa3}, !- Handle
  Run Period 1,                           !- Name
  1,                                      !- Begin Month
  1,                                      !- Begin Day of Month
  12,                                     !- End Month
  31,                                     !- End Day of Month
  ,                                       !- Use Weather File Holidays and Special Days
  ,                                       !- Use Weather File Daylight Saving Period
  ,                                       !- Apply Weekend Holiday Rule
  ,                                       !- Use Weather File Rain Indicators
  ,                                       !- Use Weather File Snow Indicators
  ;                                       !- Number of Times Runperiod to be Repeated

OS:Building,
  {bf305633-c5a1-4881-9edf-ca5e1a8e1274}, !- Handle
  Building 1,                             !- Name
  ,                                       !- Building Sector Type
  ,                                       !- North Axis {deg}
  ,                                       !- Nominal Floor to Floor Height {m}
  ,                                       !- Space Type Name
  ,                                       !- Default Construction Set Name
  {dcc6407a-e84c-432c-a2db-f3828d4d22f0}, !- Default Schedule Set Name
  ,                                       !- Standards Number of Stories
  ,                                       !- Standards Number of Above Ground Stories
  SuperMarket;                            !- Standards Building Type

OS:LifeCycleCost:Parameters,
  {231cf8a0-f0e7-4251-a99f-11f0d464e661}, !- Handle
  FEMP,                                   !- Analysis Type
  ,                                       !- Discounting Convention
  ,                                       !- Inflation Approach
  ,                                       !- Real Discount Rate
  ,                                       !- Nominal Discount Rate
  ,                                       !- Inflation
  ,                                       !- Base Date Month
  ,                                       !- Base Date Year
  ,                                       !- Service Date Month
  ,                                       !- Service Date Year
  ,                                       !- Length of Study Period in Years
  ,                                       !- Tax Rate
  ,                                       !- Depreciation Method
  Yes;                                    !- Use NIST Fuel Escalation Rates

OS:Facility,
  {3ba8e45b-b833-44eb-a723-ea6c3946dc96}; !- Handle

OS:SpaceType,
  {41f7bce0-2a2d-46b6-a30b-6f4d4b534798}, !- Handle
  SuperMarket|Sales/Produce|DOE Ref 1980-2004|ASHRAE 169-2006-5A, !- Name
  {33f96091-1754-4dda-9427-51cab6829fa6}, !- Default Construction Set Name
  {2e24fdf3-6a12-4981-a6e9-2b653d81e57e}, !- Default Schedule Set Name
  {dc6053e5-41ca-4871-be4b-d030dd4a3789}, !- Group Rendering Name
  {9dcc91ca-1933-471a-951b-4c6ad5b61ab4}, !- Design Specification Outdoor Air Object Name
  SuperMarket,                            !- Standards Building Type
  Sales/Produce;                          !- Standards Space Type

OS:Rendering:Color,
  {dc6053e5-41ca-4871-be4b-d030dd4a3789}, !- Handle
  Rendering Color 1,                      !- Name
  230,                                    !- Rendering Red Value
  196,                                    !- Rendering Green Value
  120;                                    !- Rendering Blue Value

OS:SpaceType,
  {6c5d1465-cb59-4ab0-9604-42057e2e659b}, !- Handle
  SuperMarket|DryStorage|DOE Ref 1980-2004|ASHRAE 169-2006-5A, !- Name
  {33f96091-1754-4dda-9427-51cab6829fa6}, !- Default Construction Set Name
  {38eba711-e803-4416-86c4-d06ed1ababfe}, !- Default Schedule Set Name
  {2e1cc53a-3d06-4a20-88ec-581611a1a1d9}, !- Group Rendering Name
  {4b501160-776f-4327-a470-9762621b7eb7}, !- Design Specification Outdoor Air Object Name
  SuperMarket,                            !- Standards Building Type
  DryStorage;                             !- Standards Space Type

OS:Rendering:Color,
  {2e1cc53a-3d06-4a20-88ec-581611a1a1d9}, !- Handle
  Rendering Color 2,                      !- Name
  120,                                    !- Rendering Red Value
  149,                                    !- Rendering Green Value
  230;                                    !- Rendering Blue Value

OS:SpaceType,
  {4db03ae2-4cc6-42e6-b351-b64e5fab2a70}, !- Handle
  SuperMarket|Deli/Bakery|DOE Ref 1980-2004|ASHRAE 169-2006-5A, !- Name
  {33f96091-1754-4dda-9427-51cab6829fa6}, !- Default Construction Set Name
  {06c8ea74-47aa-4ef0-92e8-b21bc8ee92ba}, !- Default Schedule Set Name
  {9f140478-4d2f-484f-87a2-9a1a00b6dd7b}, !- Group Rendering Name
  {13a05276-95d5-4a71-96b8-8ad1915b2c6e}, !- Design Specification Outdoor Air Object Name
  SuperMarket,                            !- Standards Building Type
  Deli/Bakery;                            !- Standards Space Type

OS:Rendering:Color,
  {9f140478-4d2f-484f-87a2-9a1a00b6dd7b}, !- Handle
  Rendering Color 3,                      !- Name
  31,                                     !- Rendering Red Value
  169,                                    !- Rendering Green Value
  34;                                     !- Rendering Blue Value

OS:SpaceType,
  {b3a1c75e-9573-4c55-85ab-8e9d8f8f37c9}, !- Handle
  SuperMarket|Office|DOE Ref 1980-2004|ASHRAE 169-2006-5A, !- Name
  {33f96091-1754-4dda-9427-51cab6829fa6}, !- Default Construction Set Name
  {f3d80332-c210-43a9-9276-94af673359d2}, !- Default Schedule Set Name
  {94720153-de6f-462b-a7c2-9eaed20e1387}, !- Group Rendering Name
  {cc9d3c69-db45-47eb-85fe-777a7d510e92}, !- Design Specification Outdoor Air Object Name
  SuperMarket,                            !- Standards Building Type
  Office;                                 !- Standards Space Type

OS:Rendering:Color,
  {94720153-de6f-462b-a7c2-9eaed20e1387}, !- Handle
  Rendering Color 4,                      !- Name
  120,                                    !- Rendering Red Value
  230,                                    !- Rendering Green Value
  199;                                    !- Rendering Blue Value

OS:Schedule:Ruleset,
  {1cd76ca6-b58b-4e9c-b3b2-614620a190b2}, !- Handle
  0600|2200|SuperMarket|default|hoo,      !- Name
  {8956b169-9587-45ef-bf60-89ef7dfaf4ff}, !- Schedule Type Limits Name
  {7d63c378-2591-480e-bec9-ec6e9a192ac2}, !- Default Day Schedule Name
  {b2c7393e-423d-40d7-ba8b-46b6453671f4}, !- Summer Design Day Schedule Name
  {979e76ea-8ea5-44bf-a0b2-90d9deb6afd4}; !- Winter Design Day Schedule Name

OS:Schedule:Day,
  {7d63c378-2591-480e-bec9-ec6e9a192ac2}, !- Handle
  0600|2200|SuperMarket|default|hoo Schedule Week Day, !- Name
  {8956b169-9587-45ef-bf60-89ef7dfaf4ff}, !- Schedule Type Limits Name
  ,                                       !- Interpolate to Timestep
  6,                                      !- Hour 1
  0,                                      !- Minute 1
  0,                                      !- Value Until Time 1
  22,                                     !- Hour 2
  0,                                      !- Minute 2
  1,                                      !- Value Until Time 2
  24,                                     !- Hour 3
  0,                                      !- Minute 3
  0;                                      !- Value Until Time 3

OS:Schedule:Day,
  {56207c66-7140-4692-a9a3-a254c12b38d8}, !- Handle
  Schedule Day 2,                         !- Name
  ,                                       !- Schedule Type Limits Name
  ,                                       !- Interpolate to Timestep
  24,                                     !- Hour 1
  0,                                      !- Minute 1
  0;                                      !- Value Until Time 1

OS:Schedule:Day,
  {979e76ea-8ea5-44bf-a0b2-90d9deb6afd4}, !- Handle
  0600|2200|SuperMarket|default|hoo Winter Design Day, !- Name
  {8956b169-9587-45ef-bf60-89ef7dfaf4ff}, !- Schedule Type Limits Name
  ,                                       !- Interpolate to Timestep
  24,                                     !- Hour 1
  0,                                      !- Minute 1
  0;                                      !- Value Until Time 1

OS:Schedule:Day,
  {d87932fd-f326-4e65-a081-53baeb38d98b}, !- Handle
  Schedule Day 3,                         !- Name
  ,                                       !- Schedule Type Limits Name
  ,                                       !- Interpolate to Timestep
  24,                                     !- Hour 1
  0,                                      !- Minute 1
  0;                                      !- Value Until Time 1

OS:Schedule:Day,
  {b2c7393e-423d-40d7-ba8b-46b6453671f4}, !- Handle
  0600|2200|SuperMarket|default|hoo Summer Design Day, !- Name
  {8956b169-9587-45ef-bf60-89ef7dfaf4ff}, !- Schedule Type Limits Name
  ,                                       !- Interpolate to Timestep
  24,                                     !- Hour 1
  0,                                      !- Minute 1
  1;                                      !- Value Until Time 1

OS:DefaultScheduleSet,
  {dcc6407a-e84c-432c-a2db-f3828d4d22f0}, !- Handle
  Building Hours of Operation,            !- Name
  {1cd76ca6-b58b-4e9c-b3b2-614620a190b2}, !- Hours of Operation Schedule Name
  ,                                       !- Number of People Schedule Name
  ,                                       !- People Activity Level Schedule Name
  ,                                       !- Lighting Schedule Name
  ,                                       !- Electric Equipment Schedule Name
  ,                                       !- Gas Equipment Schedule Name
  ,                                       !- Hot Water Equipment Schedule Name
  ,                                       !- Infiltration Schedule Name
  ,                                       !- Steam Equipment Schedule Name
  ;                                       !- Other Equipment Schedule Name

OS:ScheduleTypeLimits,
  {8956b169-9587-45ef-bf60-89ef7dfaf4ff}, !- Handle
  OnOff,                                  !- Name
  0,                                      !- Lower Limit Value {BasedOnField A4}
  1,                                      !- Upper Limit Value {BasedOnField A4}
  Discrete,                               !- Numeric Type
  Availability;                           !- Unit Type

OS:Schedule:Ruleset,
  {0c4a0bb9-d7e7-4ef7-9761-86cbd00596ee}, !- Handle
  0600|2200|SuperMarket|default|occ,      !- Name
  {04606043-d0d1-40a9-a529-504314ec80a5}, !- Schedule Type Limits Name
  {6d25c2dd-3de7-427e-ac42-78351643d35d}, !- Default Day Schedule Name
  {c9eb9ce0-f5c5-4af6-b384-1f387a8cd097}, !- Summer Design Day Schedule Name
  {e6acd4d9-6157-4a19-9a7c-e02be707ece9}; !- Winter Design Day Schedule Name

OS:ScheduleTypeLimits,
  {04606043-d0d1-40a9-a529-504314ec80a5}, !- Handle
  Occupancy Schedule Type Limits,         !- Name
  0,                                      !- Lower Limit Value {BasedOnField A4}
  1,                                      !- Upper Limit Value {BasedOnField A4}
  Continuous,                             !- Numeric Type
  Dimensionless;                          !- Unit Type

OS:Schedule:Day,
  {6d25c2dd-3de7-427e-ac42-78351643d35d}, !- Handle
  0600|2200|SuperMarket|default|occ |default, !- Name
  {04606043-d0d1-40a9-a529-504314ec80a5}, !- Schedule Type Limits Name
  ,                                       !- Interpolate to Timestep
  6,                                      !- Hour 1
  0,                                      !- Minute 1
  0,                                      !- Value Until Time 1
  8,                                      !- Hour 2
  0,                                      !- Minute 2
  0.1,                                    !- Value Until Time 2
  9,                                      !- Hour 3
  0,                                      !- Minute 3
  0.2,                                    !- Value Until Time 3
  11,                                     !- Hour 4
  0,                                      !- Minute 4
  0.5,                                    !- Value Until Time 4
  15,                                     !- Hour 5
  0,                                      !- Minute 5
  0.7,                                    !- Value Until Time 5
  16,                                     !- Hour 6
  0,                                      !- Minute 6
  0.8,                                    !- Value Until Time 6
  17,                                     !- Hour 7
  0,                                      !- Minute 7
  0.7,                                    !- Value Until Time 7
  19,                                     !- Hour 8
  0,                                      !- Minute 8
  0.5,                                    !- Value Until Time 8
  22,                                     !- Hour 9
  0,                                      !- Minute 9
  0.3,                                    !- Value Until Time 9
  24,                                     !- Hour 10
  0,                                      !- Minute 10
  0;                                      !- Value Until Time 10

OS:Schedule:Day,
  {c9eb9ce0-f5c5-4af6-b384-1f387a8cd097}, !- Handle
  0600|2200|SuperMarket|default|occ Summer Design Day, !- Name
  {04606043-d0d1-40a9-a529-504314ec80a5}, !- Schedule Type Limits Name
  ,                                       !- Interpolate to Timestep
  6,                                      !- Hour 1
  0,                                      !- Minute 1
  0,                                      !- Value Until Time 1
  8,                                      !- Hour 2
  0,                                      !- Minute 2
  0.1,                                    !- Value Until Time 2
  9,                                      !- Hour 3
  0,                                      !- Minute 3
  0.2,                                    !- Value Until Time 3
  22,                                     !- Hour 4
  0,                                      !- Minute 4
  1,                                      !- Value Until Time 4
  24,                                     !- Hour 5
  0,                                      !- Minute 5
  0;                                      !- Value Until Time 5

OS:Schedule:Day,
  {e6acd4d9-6157-4a19-9a7c-e02be707ece9}, !- Handle
  0600|2200|SuperMarket|default|occ Winter Design Day, !- Name
  {04606043-d0d1-40a9-a529-504314ec80a5}, !- Schedule Type Limits Name
  ,                                       !- Interpolate to Timestep
  24,                                     !- Hour 1
  0,                                      !- Minute 1
  0;                                      !- Value Until Time 1

OS:Schedule:Rule,
  {4f6b0a31-1446-4c0e-ad64-e03cc3b02a67}, !- Handle
  0600|2200|SuperMarket|default|occ |1/1-12/31|Sat Rule, !- Name
  {0c4a0bb9-d7e7-4ef7-9761-86cbd00596ee}, !- Schedule Ruleset Name
  0,                                      !- Rule Order
  {092b493b-25ff-43d2-95eb-21129620c79d}, !- Day Schedule Name
  ,                                       !- Apply Sunday
  ,                                       !- Apply Monday
  ,                                       !- Apply Tuesday
  ,                                       !- Apply Wednesday
  ,                                       !- Apply Thursday
  ,                                       !- Apply Friday
  Yes,                                    !- Apply Saturday
  ,                                       !- Apply Holiday
  DateRange,                              !- Date Specification Type
  1,                                      !- Start Month
  1,                                      !- Start Day
  12,                                     !- End Month
  31;                                     !- End Day

OS:Schedule:Day,
  {092b493b-25ff-43d2-95eb-21129620c79d}, !- Handle
  0600|2200|SuperMarket|default|occ |1/1-12/31|Sat, !- Name
  {04606043-d0d1-40a9-a529-504314ec80a5}, !- Schedule Type Limits Name
  ,                                       !- Interpolate to Timestep
  6,                                      !- Hour 1
  0,                                      !- Minute 1
  0,                                      !- Value Until Time 1
  8,                                      !- Hour 2
  0,                                      !- Minute 2
  0.1,                                    !- Value Until Time 2
  9,                                      !- Hour 3
  0,                                      !- Minute 3
  0.2,                                    !- Value Until Time 3
  10,                                     !- Hour 4
  0,                                      !- Minute 4
  0.5,                                    !- Value Until Time 4
  11,                                     !- Hour 5
  0,                                      !- Minute 5
  0.6,                                    !- Value Until Time 5
  17,                                     !- Hour 6
  0,                                      !- Minute 6
  0.8,                                    !- Value Until Time 6
  18,                                     !- Hour 7
  0,                                      !- Minute 7
  0.6,                                    !- Value Until Time 7
  21,                                     !- Hour 8
  0,                                      !- Minute 8
  0.2,                                    !- Value Until Time 8
  22,                                     !- Hour 9
  0,                                      !- Minute 9
  0.1,                                    !- Value Until Time 9
  24,                                     !- Hour 10
  0,                                      !- Minute 10
  0;                                      !- Value Until Time 10

OS:Schedule:Rule,
  {435d21af-a26b-4a49-8a5c-396163e7498f}, !- Handle
  0600|2200|SuperMarket|default|occ |1/1-12/31|Sun Rule, !- Name
  {0c4a0bb9-d7e7-4ef7-9761-86cbd00596ee}, !- Schedule Ruleset Name
  1,                                      !- Rule Order
  {382ff8f3-8ac0-429c-b543-16ee062ccc0a}, !- Day Schedule Name
  Yes,                                    !- Apply Sunday
  ,                                       !- Apply Monday
  ,                                       !- Apply Tuesday
  ,                                       !- Apply Wednesday
  ,                                       !- Apply Thursday
  ,                                       !- Apply Friday
  ,                                       !- Apply Saturday
  ,                                       !- Apply Holiday
  DateRange,                              !- Date Specification Type
  1,                                      !- Start Month
  1,                                      !- Start Day
  12,                                     !- End Month
  31;                                     !- End Day

OS:Schedule:Day,
  {382ff8f3-8ac0-429c-b543-16ee062ccc0a}, !- Handle
  0600|2200|SuperMarket|default|occ |1/1-12/31|Sun, !- Name
  {04606043-d0d1-40a9-a529-504314ec80a5}, !- Schedule Type Limits Name
  ,                                       !- Interpolate to Timestep
  6,                                      !- Hour 1
  0,                                      !- Minute 1
  0,                                      !- Value Until Time 1
  10,                                     !- Hour 2
  0,                                      !- Minute 2
  0.1,                                    !- Value Until Time 2
  12,                                     !- Hour 3
  0,                                      !- Minute 3
  0.2,                                    !- Value Until Time 3
  17,                                     !- Hour 4
  0,                                      !- Minute 4
  0.4,                                    !- Value Until Time 4
  18,                                     !- Hour 5
  0,                                      !- Minute 5
  0.2,                                    !- Value Until Time 5
  22,                                     !- Hour 6
  0,                                      !- Minute 6
  0.1,                                    !- Value Until Time 6
  24,                                     !- Hour 7
  0,                                      !- Minute 7
  0;                                      !- Value Until Time 7

OS:Schedule:Ruleset,
  {98ada4bf-c6a1-4627-95a3-84f65e22f42e}, !- Handle
  0600|2200|SuperMarket|default|swh_target_temp, !- Name
  {d3203e55-0371-4127-9d05-469a299c66fe}, !- Schedule Type Limits Name
  {0d812b7c-858a-4888-aeaa-c52b2031eaee}, !- Default Day Schedule Name
  {bd9d699f-5bf4-441a-9440-363e8945c4c5}, !- Summer Design Day Schedule Name
  {dc4cac86-07a6-4fcd-8403-ea5b5dd9b343}; !- Winter Design Day Schedule Name

OS:ScheduleTypeLimits,
  {d3203e55-0371-4127-9d05-469a299c66fe}, !- Handle
  Temperature Schedule Type Limits,       !- Name
  ,                                       !- Lower Limit Value {BasedOnField A4}
  ,                                       !- Upper Limit Value {BasedOnField A4}
  Continuous,                             !- Numeric Type
  Temperature;                            !- Unit Type

OS:Schedule:Day,
  {0d812b7c-858a-4888-aeaa-c52b2031eaee}, !- Handle
  0600|2200|SuperMarket|default|swh_target_temp |default, !- Name
  {d3203e55-0371-4127-9d05-469a299c66fe}, !- Schedule Type Limits Name
  ,                                       !- Interpolate to Timestep
  24,                                     !- Hour 1
  0,                                      !- Minute 1
  60.0000000000001;                       !- Value Until Time 1

OS:Schedule:Day,
  {bd9d699f-5bf4-441a-9440-363e8945c4c5}, !- Handle
  0600|2200|SuperMarket|default|swh_target_temp Summer Design Day, !- Name
  {d3203e55-0371-4127-9d05-469a299c66fe}, !- Schedule Type Limits Name
  ,                                       !- Interpolate to Timestep
  24,                                     !- Hour 1
  0,                                      !- Minute 1
  60.0000000000001;                       !- Value Until Time 1

OS:Schedule:Day,
  {dc4cac86-07a6-4fcd-8403-ea5b5dd9b343}, !- Handle
  0600|2200|SuperMarket|default|swh_target_temp Winter Design Day, !- Name
  {d3203e55-0371-4127-9d05-469a299c66fe}, !- Schedule Type Limits Name
  ,                                       !- Interpolate to Timestep
  24,                                     !- Hour 1
  0,                                      !- Minute 1
  60.0000000000001;                       !- Value Until Time 1

OS:Schedule:Ruleset,
  {bf471b87-f17f-47e4-8a69-0d146d42bf11}, !- Handle
  0600|2200|SuperMarket|default|htg_setpoint, !- Name
  {9b2976a5-2e01-4ceb-a8fb-bae154568dfb}, !- Schedule Type Limits Name
  {340f66f1-6b95-4b6d-97bd-9e4f11956b4b}, !- Default Day Schedule Name
  {7e4c2ba8-7ae5-4023-a849-12b75fd01763}, !- Summer Design Day Schedule Name
  {6077635c-40df-48e7-a49b-aa9cba573077}; !- Winter Design Day Schedule Name

OS:ScheduleTypeLimits,
  {9b2976a5-2e01-4ceb-a8fb-bae154568dfb}, !- Handle
  Thermostat Heating Setpoint Schedule Type Limits, !- Name
  0,                                      !- Lower Limit Value {BasedOnField A4}
  100,                                    !- Upper Limit Value {BasedOnField A4}
  Continuous,                             !- Numeric Type
  Temperature;                            !- Unit Type

OS:Schedule:Day,
  {340f66f1-6b95-4b6d-97bd-9e4f11956b4b}, !- Handle
  0600|2200|SuperMarket|default|htg_setpoint |default, !- Name
  {9b2976a5-2e01-4ceb-a8fb-bae154568dfb}, !- Schedule Type Limits Name
  ,                                       !- Interpolate to Timestep
  24,                                     !- Hour 1
  0,                                      !- Minute 1
  21.0000000000001;                       !- Value Until Time 1

OS:Schedule:Day,
  {7e4c2ba8-7ae5-4023-a849-12b75fd01763}, !- Handle
  0600|2200|SuperMarket|default|htg_setpoint Summer Design Day, !- Name
  {9b2976a5-2e01-4ceb-a8fb-bae154568dfb}, !- Schedule Type Limits Name
  ,                                       !- Interpolate to Timestep
  24,                                     !- Hour 1
  0,                                      !- Minute 1
  21.0000000000001;                       !- Value Until Time 1

OS:Schedule:Day,
  {6077635c-40df-48e7-a49b-aa9cba573077}, !- Handle
  0600|2200|SuperMarket|default|htg_setpoint Winter Design Day, !- Name
  {9b2976a5-2e01-4ceb-a8fb-bae154568dfb}, !- Schedule Type Limits Name
  ,                                       !- Interpolate to Timestep
  24,                                     !- Hour 1
  0,                                      !- Minute 1
  21.0000000000001;                       !- Value Until Time 1

OS:Schedule:Ruleset,
  {aba057b9-cd75-4314-9155-0d8637506feb}, !- Handle
  0600|2200|SuperMarket|default|swh,      !- Name
  {8de368ae-e82b-4f66-9102-4546012c300f}, !- Schedule Type Limits Name
  {029794ee-2b45-4a88-bc6b-7cedb8ce2bcb}, !- Default Day Schedule Name
  {c1552e44-00e7-4390-a0a0-d41f7aebda5d}, !- Summer Design Day Schedule Name
  {3a2fba5a-fa74-455b-a9d0-2b88763f9e64}; !- Winter Design Day Schedule Name

OS:ScheduleTypeLimits,
  {8de368ae-e82b-4f66-9102-4546012c300f}, !- Handle