
OS:Version,
  {05e23ac6-7afd-4653-90e6-df63fc2cbcf4}, !- Handle
  1.6.0;                                  !- Version Identifier

OS:ClimateZones,
  {135edfab-17e7-40db-a436-27d385a8cd6d}, !- Handle
  ,                                       !- Active Institution
  ,                                       !- Active Year
  ASHRAE,                                 !- Climate Zone Institution Name 1
  ANSI/ASHRAE Standard 169,               !- Climate Zone Document Name 1
  2006,                                   !- Climate Zone Document Year 1
  ,                                       !- Climate Zone Value 1
  CEC,                                    !- Climate Zone Institution Name 2
  California Climate Zone Descriptions,   !- Climate Zone Document Name 2
  1995,                                   !- Climate Zone Document Year 2
  ;                                       !- Climate Zone Value 2

OS:YearDescription,
  {513d8dda-86cb-442a-b01c-1f7f0e0ac70e}; !- Handle

OS:RadianceParameters,
  {270a96f1-3c86-4b75-a667-cdf22790e2c8}, !- Handle
  1,                                      !- Accumulated Rays per Record
  0,                                      !- Direct Threshold
  1,                                      !- Direct Certainty
  1,                                      !- Direct Jitter
  1,                                      !- Direct Pretest
  6,                                      !- Ambient Bounces VMX
  2,                                      !- Ambient Bounces DMX
  4050,                                   !- Ambient Divisions VMX
  512,                                    !- Ambient Divisions DMX
  256,                                    !- Ambient Supersamples
  0.001,                                  !- Limit Weight VMX
  0.001,                                  !- Limit Weight DMX
  500,                                    !- Klems Sampling Density
  146;                                    !- Sky Discretization Resolution

OS:SimulationControl,
  {2c487a4c-bac9-4ac5-b669-1e49d9da7c2b}, !- Handle
  ,                                       !- Do Zone Sizing Calculation
  ,                                       !- Do System Sizing Calculation
  ,                                       !- Do Plant Sizing Calculation
  No,                                     !- Run Simulation for Sizing Periods
  ,                                       !- Run Simulation for Weather File Run Periods
  0.04,                                   !- Loads Convergence Tolerance Value
  ,                                       !- Temperature Convergence Tolerance Value {deltaC}
  ,                                       !- Solar Distribution
  ,                                       !- Maximum Number of Warmup Days
  2;                                      !- Minimum Number of Warmup Days

OS:Sizing:Parameters,
  {dde5af6f-7923-4600-a28a-7556673a0266}, !- Handle
  1.25,                                   !- Heating Sizing Factor
  1.15;                                   !- Cooling Sizing Factor

OS:ProgramControl,
  {05027a99-f2b3-4aeb-afc6-1425fbb4371d}; !- Handle

OS:Timestep,
  {4ebc9f1e-4707-402e-9844-67eb1ffbd522}, !- Handle
  2;                                      !- Number of Timesteps per Hour

OS:OutputControl:ReportingTolerances,
  {65797aa2-06a9-45fe-b69d-bc6e060399d3}; !- Handle

OS:ConvergenceLimits,
  {9fc11aba-8822-4f3d-970c-46391ba4040d}; !- Handle

OS:ShadowCalculation,
  {ca758bea-4416-4626-9bba-3d8795c79bd6}, !- Handle
  7,                                      !- Calculation Frequency
  15000;                                  !- Maximum Figures in Shadow Overlap Calculations

OS:SurfaceConvectionAlgorithm:Inside,
  {aaabfc36-718a-4ab0-b622-f186ebb45230}, !- Handle
  TARP;                                   !- Algorithm

OS:SurfaceConvectionAlgorithm:Outside,
  {9a0a9f6f-4bbd-4b12-a121-9492a1fcd7d6}, !- Handle
  DOE-2;                                  !- Algorithm

OS:HeatBalanceAlgorithm,
  {9d93e563-e1e0-46d7-9e39-d1c8aceb7212}, !- Handle
  ConductionTransferFunction,             !- Algorithm
  200;                                    !- Surface Temperature Upper Limit {F}

OS:ZoneAirHeatBalanceAlgorithm,
  {8520d93e-310f-4696-9bcd-36228bfdd743}, !- Handle
  AnalyticalSolution;                     !- Algorithm

OS:ZoneAirContaminantBalance,
  {eb5fc3ae-fb22-4160-8fcb-3e3b22b000d3}; !- Handle

OS:ZoneCapacitanceMultiplier:ResearchSpecial,
  {4020ce4f-5a7a-4849-8028-8305d7b751b1}, !- Handle
  ,                                       !- Temperature Capacity Multiplier
  ,                                       !- Humidity Capacity Multiplier
  ;                                       !- Carbon Dioxide Capacity Multiplier

OS:RunPeriod,
  {28df894d-6af9-4fb8-8f56-df1753344aa3}, !- Handle
  Run Period 1,                           !- Name
  1,                                      !- Begin Month
  1,                                      !- Begin Day of Month
  12,                                     !- End Month
  31,                                     !- End Day of Month
  ,                                       !- Use Weather File Holidays and Special Days
  ,                                       !- Use Weather File Daylight Saving Period
  ,                                       !- Apply Weekend Holiday Rule
  ,                                       !- Use Weather File Rain Indicators
  ,                                       !- Use Weather File Snow Indicators
  ;                                       !- Number of Times Runperiod to be Repeated

OS:Building,
  {bf305633-c5a1-4881-9edf-ca5e1a8e1274}, !- Handle
  Building 1,                             !- Name
  ,                                       !- Building Sector Type
  ,                                       !- North Axis {deg}
  ,                                       !- Nominal Floor to Floor Height {m}
  ,                                       !- Space Type Name
  ,                                       !- Default Construction Set Name
  {8c67a7eb-17e7-4e16-850d-51a3a18db21f}, !- Default Schedule Set Name
  ,                                       !- Standards Number of Stories
  ,                                       !- Standards Number of Above Ground Stories
  SuperMarket;                            !- Standards Building Type

OS:LifeCycleCost:Parameters,
  {231cf8a0-f0e7-4251-a99f-11f0d464e661}, !- Handle
  FEMP,                                   !- Analysis Type
  ,                                       !- Discounting Convention
  ,                                       !- Inflation Approach
  ,                                       !- Real Discount Rate
  ,                                       !- Nominal Discount Rate
  ,                                       !- Inflation
  ,                                       !- Base Date Month
  ,                                       !- Base Date Year
  ,                                       !- Service Date Month
  ,                                       !- Service Date Year
  ,                                       !- Length of Study Period in Years
  ,                                       !- Tax Rate
  ,                                       !- Depreciation Method
  Yes;                                    !- Use NIST Fuel Escalation Rates

OS:Facility,
  {3ba8e45b-b833-44eb-a723-ea6c3946dc96}; !- Handle

OS:SpaceType,
  {89c3a18e-e18b-49b4-a6e7-514f2f83716b}, !- Handle
  SuperMarket|SalesProduce|DOE Ref 2004|ASHRAE 169-2006-5A, !- Name
  {3f411486-7c96-4142-b694-2ed193f54db7}, !- Default Construction Set Name
  {9a66da84-39a8-4b09-881a-2b849d2ca511}, !- Default Schedule Set Name
  {17750b65-119e-42ff-975b-620240f8bc41}, !- Group Rendering Name
  {33f67f53-2b47-4241-8454-abfa31c949ea}, !- Design Specification Outdoor Air Object Name
  SuperMarket,                            !- Standards Building Type
  SalesProduce;                           !- Standards Space Type

OS:Rendering:Color,
  {17750b65-119e-42ff-975b-620240f8bc41}, !- Handle
  Rendering Color 1,                      !- Name
  230,                                    !- Rendering Red Value
  196,                                    !- Rendering Green Value
  120;                                    !- Rendering Blue Value

OS:SpaceType,
  {5fb8a879-40b0-4a6a-acb0-ba7c3064af5a}, !- Handle
  SuperMarket|DryStorage|DOE Ref 2004|ASHRAE 169-2006-5A, !- Name
  {3f411486-7c96-4142-b694-2ed193f54db7}, !- Default Construction Set Name
  {e76f12f7-f2ef-48e8-8a7c-43ddbdec01c2}, !- Default Schedule Set Name
  {abcea987-6336-41ba-9ef2-db3c41aa0516}, !- Group Rendering Name
  {cf3fdf0d-02e9-47d0-b894-ffa300f7ce16}, !- Design Specification Outdoor Air Object Name
  SuperMarket,                            !- Standards Building Type
  DryStorage;                             !- Standards Space Type

OS:Rendering:Color,
  {abcea987-6336-41ba-9ef2-db3c41aa0516}, !- Handle
  Rendering Color 2,                      !- Name
  120,                                    !- Rendering Red Value
  149,                                    !- Rendering Green Value
  230;                                    !- Rendering Blue Value

OS:SpaceType,
  {6dbfafa8-5080-483b-a938-b642af9f547b}, !- Handle
  SuperMarket|DeliBakery|DOE Ref 2004|ASHRAE 169-2006-5A, !- Name
  {3f411486-7c96-4142-b694-2ed193f54db7}, !- Default Construction Set Name
  {6f0bfd66-9618-48ee-99c8-549bcda3a226}, !- Default Schedule Set Name
  {8197130b-3071-4061-be63-dc897c1074ce}, !- Group Rendering Name
  {cc4ea09a-a601-4a33-8784-cf7a2ecb1a32}, !- Design Specification Outdoor Air Object Name
  SuperMarket,                            !- Standards Building Type
  DeliBakery;                             !- Standards Space Type

OS:Rendering:Color,
  {8197130b-3071-4061-be63-dc897c1074ce}, !- Handle
  Rendering Color 3,                      !- Name
  31,                                     !- Rendering Red Value
  169,                                    !- Rendering Green Value
  34;                                     !- Rendering Blue Value

OS:SpaceType,
  {5d7a2c12-34a2-47f4-90fa-ec5353a45cbb}, !- Handle
  SuperMarket|Office|DOE Ref 2004|ASHRAE 169-2006-5A, !- Name
  {3f411486-7c96-4142-b694-2ed193f54db7}, !- Default Construction Set Name
  {7ae096fc-288a-4b92-b4d8-5fc69a20bbc8}, !- Default Schedule Set Name
  {224b3a08-a28a-41a4-a413-67dc3d7b237f}, !- Group Rendering Name
  {2c7d3c91-6ea9-4d8a-a621-4b79e369dd5a}, !- Design Specification Outdoor Air Object Name
  SuperMarket,                            !- Standards Building Type
  Office;                                 !- Standards Space Type

OS:Rendering:Color,
  {224b3a08-a28a-41a4-a413-67dc3d7b237f}, !- Handle
  Rendering Color 4,                      !- Name
  120,                                    !- Rendering Red Value
  230,                                    !- Rendering Green Value
  199;                                    !- Rendering Blue Value

OS:Schedule:Ruleset,
  {95de7e28-14ec-485f-afc4-fd346db682b8}, !- Handle
  0600|2200|SuperMarket|default|hoo,      !- Name
  {5abec574-36be-4287-b425-b62580695a96}, !- Schedule Type Limits Name
  {bbda6e35-a70e-4628-a95e-f496940ddd06}, !- Default Day Schedule Name
  {25215081-1965-456c-83b9-14ac07c62beb}, !- Summer Design Day Schedule Name
  {4e201545-5862-4652-be58-9cabcea5899d}; !- Winter Design Day Schedule Name

OS:Schedule:Day,
  {bbda6e35-a70e-4628-a95e-f496940ddd06}, !- Handle
  0600|2200|SuperMarket|default|hoo Schedule Week Day, !- Name
  {5abec574-36be-4287-b425-b62580695a96}, !- Schedule Type Limits Name
  ,                                       !- Interpolate to Timestep
  6,                                      !- Hour 1
  0,                                      !- Minute 1
  0,                                      !- Value Until Time 1
  22,                                     !- Hour 2
  0,                                      !- Minute 2
  1,                                      !- Value Until Time 2
  24,                                     !- Hour 3
  0,                                      !- Minute 3
  0;                                      !- Value Until Time 3

OS:Schedule:Day,
  {152bde07-3869-4615-a1cb-13ea5b7bc887}, !- Handle
  Schedule Day 2,                         !- Name
  ,                                       !- Schedule Type Limits Name
  ,                                       !- Interpolate to Timestep
  24,                                     !- Hour 1
  0,                                      !- Minute 1
  0;                                      !- Value Until Time 1

OS:Schedule:Day,
  {4e201545-5862-4652-be58-9cabcea5899d}, !- Handle
  0600|2200|SuperMarket|default|hoo Winter Design Day, !- Name
  {5abec574-36be-4287-b425-b62580695a96}, !- Schedule Type Limits Name
  ,                                       !- Interpolate to Timestep
  24,                                     !- Hour 1
  0,                                      !- Minute 1
  0;                                      !- Value Until Time 1

OS:Schedule:Day,
  {80af3541-c909-44c4-818f-d751599a20e2}, !- Handle
  Schedule Day 3,                         !- Name
  ,                                       !- Schedule Type Limits Name
  ,                                       !- Interpolate to Timestep
  24,                                     !- Hour 1
  0,                                      !- Minute 1
  0;                                      !- Value Until Time 1

OS:Schedule:Day,
  {25215081-1965-456c-83b9-14ac07c62beb}, !- Handle
  0600|2200|SuperMarket|default|hoo Summer Design Day, !- Name
  {5abec574-36be-4287-b425-b62580695a96}, !- Schedule Type Limits Name
  ,                                       !- Interpolate to Timestep
  24,                                     !- Hour 1
  0,                                      !- Minute 1
  1;                                      !- Value Until Time 1

OS:DefaultScheduleSet,
  {8c67a7eb-17e7-4e16-850d-51a3a18db21f}, !- Handle
  Building Hours of Operation,            !- Name
  {95de7e28-14ec-485f-afc4-fd346db682b8}, !- Hours of Operation Schedule Name
  ,                                       !- Number of People Schedule Name
  ,                                       !- People Activity Level Schedule Name
  ,                                       !- Lighting Schedule Name
  ,                                       !- Electric Equipment Schedule Name
  ,                                       !- Gas Equipment Schedule Name
  ,                                       !- Hot Water Equipment Schedule Name
  ,                                       !- Infiltration Schedule Name
  ,                                       !- Steam Equipment Schedule Name
  ;                                       !- Other Equipment Schedule Name

OS:ScheduleTypeLimits,
  {5abec574-36be-4287-b425-b62580695a96}, !- Handle
  OnOff,                                  !- Name
  0,                                      !- Lower Limit Value {BasedOnField A4}
  1,                                      !- Upper Limit Value {BasedOnField A4}
  Discrete,                               !- Numeric Type
  Availability;                           !- Unit Type

OS:Schedule:Ruleset,
  {4b7d947e-9422-4a2c-bb0b-128bd8a0ece2}, !- Handle
  0600|2200|SuperMarket|default|thermal_ctrl, !- Name
  {3e5787c1-635b-463c-908d-3bc1381a6a2b}, !- Schedule Type Limits Name
  {c435c499-040e-460e-8f4e-8642cf593c40}, !- Default Day Schedule Name
  {a8d03c70-05d5-4f6a-b109-3f6bd70c737e}, !- Summer Design Day Schedule Name
  {dc4fac75-2f3f-4f51-ae1c-4257f4d441df}; !- Winter Design Day Schedule Name

OS:ScheduleTypeLimits,
  {3e5787c1-635b-463c-908d-3bc1381a6a2b}, !- Handle
  Dimensionless Schedule Type Limits,     !- Name
  ,                                       !- Lower Limit Value {BasedOnField A4}
  ,                                       !- Upper Limit Value {BasedOnField A4}
  Continuous,                             !- Numeric Type
  Dimensionless;                          !- Unit Type

OS:Schedule:Day,
  {c435c499-040e-460e-8f4e-8642cf593c40}, !- Handle
  0600|2200|SuperMarket|default|thermal_ctrl |default, !- Name
  {3e5787c1-635b-463c-908d-3bc1381a6a2b}, !- Schedule Type Limits Name
  ,                                       !- Interpolate to Timestep
  24,                                     !- Hour 1
  0,                                      !- Minute 1
  4;                                      !- Value Until Time 1

OS:Schedule:Day,
  {a8d03c70-05d5-4f6a-b109-3f6bd70c737e}, !- Handle
  0600|2200|SuperMarket|default|thermal_ctrl Summer Design Day, !- Name
  {3e5787c1-635b-463c-908d-3bc1381a6a2b}, !- Schedule Type Limits Name
  ,                                       !- Interpolate to Timestep
  24,                                     !- Hour 1
  0,                                      !- Minute 1
  4;                                      !- Value Until Time 1

OS:Schedule:Day,
  {dc4fac75-2f3f-4f51-ae1c-4257f4d441df}, !- Handle
  0600|2200|SuperMarket|default|thermal_ctrl Winter Design Day, !- Name
  {3e5787c1-635b-463c-908d-3bc1381a6a2b}, !- Schedule Type Limits Name
  ,                                       !- Interpolate to Timestep
  24,                                     !- Hour 1
  0,                                      !- Minute 1
  4;                                      !- Value Until Time 1

OS:Schedule:Ruleset,
  {dc498ac8-36ff-4e7b-b98d-27e22d4573a3}, !- Handle
  0600|2200|SuperMarket|default|ext_lighting, !- Name
  {7e845fef-286a-4d3e-93a6-f6389ec42b1c}, !- Schedule Type Limits Name
  {c619b13d-897c-493c-9b65-2c48d9c153a4}, !- Default Day Schedule Name
  {0b1fb493-47f9-4ed0-b9e8-3c806b6b4c91}, !- Summer Design Day Schedule Name
  {29827d7a-59e3-40de-a46d-be2e9b44649d}; !- Winter Design Day Schedule Name

OS:ScheduleTypeLimits,
  {7e845fef-286a-4d3e-93a6-f6389ec42b1c}, !- Handle
  Lights Schedule Type Limits,            !- Name
  0,                                      !- Lower Limit Value {BasedOnField A4}
  1,                                      !- Upper Limit Value {BasedOnField A4}
  Continuous,                             !- Numeric Type
  Dimensionless;                          !- Unit Type

OS:Schedule:Day,
  {c619b13d-897c-493c-9b65-2c48d9c153a4}, !- Handle
  0600|2200|SuperMarket|default|ext_lighting |default, !- Name
  {7e845fef-286a-4d3e-93a6-f6389ec42b1c}, !- Schedule Type Limits Name
  ,                                       !- Interpolate to Timestep
  24,                                     !- Hour 1
  0,                                      !- Minute 1
  1;                                      !- Value Until Time 1

OS:Schedule:Day,
  {0b1fb493-47f9-4ed0-b9e8-3c806b6b4c91}, !- Handle
  0600|2200|SuperMarket|default|ext_lighting Summer Design Day, !- Name
  {7e845fef-286a-4d3e-93a6-f6389ec42b1c}, !- Schedule Type Limits Name
  ,                                       !- Interpolate to Timestep
  24,                                     !- Hour 1
  0,                                      !- Minute 1
  1;                                      !- Value Until Time 1

OS:Schedule:Day,
  {29827d7a-59e3-40de-a46d-be2e9b44649d}, !- Handle
  0600|2200|SuperMarket|default|ext_lighting Winter Design Day, !- Name
  {7e845fef-286a-4d3e-93a6-f6389ec42b1c}, !- Schedule Type Limits Name
  ,                                       !- Interpolate to Timestep
  24,                                     !- Hour 1
  0,                                      !- Minute 1
  1;                                      !- Value Until Time 1

OS:Schedule:Ruleset,
  {c4e60ea1-83db-4d78-940f-1a2c025312b1}, !- Handle
  0600|2200|SuperMarket|default|rh,       !- Name
  {3e5787c1-635b-463c-908d-3bc1381a6a2b}, !- Schedule Type Limits Name
  {a896fb03-3676-4ee6-9e28-cac35bb1f633}, !- Default Day Schedule Name
  {1d747182-b15e-47a2-9c83-d54b63cf6488}, !- Summer Design Day Schedule Name
  {eae932bf-c3f8-49bd-b5bb-5deb772fedd5}; !- Winter Design Day Schedule Name

OS:Schedule:Day,
  {a896fb03-3676-4ee6-9e28-cac35bb1f633}, !- Handle
  0600|2200|SuperMarket|default|rh |default, !- Name
  {3e5787c1-635b-463c-908d-3bc1381a6a2b}, !- Schedule Type Limits Name
  ,                                       !- Interpolate to Timestep
  24,                                     !- Hour 1
  0,                                      !- Minute 1
  50;                                     !- Value Until Time 1

OS:Schedule:Day,
  {1d747182-b15e-47a2-9c83-d54b63cf6488}, !- Handle
  0600|2200|SuperMarket|default|rh Summer Design Day, !- Name
  {3e5787c1-635b-463c-908d-3bc1381a6a2b}, !- Schedule Type Limits Name
  ,                                       !- Interpolate to Timestep
  24,                                     !- Hour 1
  0,                                      !- Minute 1
  50;                                     !- Value Until Time 1

OS:Schedule:Day,
  {eae932bf-c3f8-49bd-b5bb-5deb772fedd5}, !- Handle
  0600|2200|SuperMarket|default|rh Winter Design Day, !- Name
  {3e5787c1-635b-463c-908d-3bc1381a6a2b}, !- Schedule Type Limits Name
  ,                                       !- Interpolate to Timestep
  24,                                     !- Hour 1
  0,                                      !- Minute 1
  50;                                     !- Value Until Time 1

OS:Schedule:Ruleset,
  {fef2f15d-6324-4c3e-a51e-5ab7e0dff8f9}, !- Handle
  0600|2200|SuperMarket|default|occ,      !- Name
  {64a1376d-93c6-41c1-836b-20f128d90112}, !- Schedule Type Limits Name
  {82d11ca4-04f6-4b96-941f-8be714c103ad}, !- Default Day Schedule Name
  {438e8949-814b-49b5-9615-ef1e70589c72}, !- Summer Design Day Schedule Name
  {af5ccfdc-8620-4ce4-8cf3-ef0275f944a9}; !- Winter Design Day Schedule Name

OS:ScheduleTypeLimits,
  {64a1376d-93c6-41c1-836b-20f128d90112}, !- Handle
  Occupancy Schedule Type Limits,         !- Name
  0,                                      !- Lower Limit Value {BasedOnField A4}
  1,                                      !- Upper Limit Value {BasedOnField A4}
  Continuous,                             !- Numeric Type
  Dimensionless;                          !- Unit Type

OS:Schedule:Day,
  {82d11ca4-04f6-4b96-941f-8be714c103ad}, !- Handle
  0600|2200|SuperMarket|default|occ |default, !- Name
  {64a1376d-93c6-41c1-836b-20f128d90112}, !- Schedule Type Limits Name
  ,                                       !- Interpolate to Timestep
  6,                                      !- Hour 1
  0,                                      !- Minute 1
  0,                                      !- Value Until Time 1
  8,                                      !- Hour 2
  0,                                      !- Minute 2
  0.1,                                    !- Value Until Time 2
  9,                                      !- Hour 3
  0,                                      !- Minute 3
  0.2,                                    !- Value Until Time 3
  11,                                     !- Hour 4
  0,                                      !- Minute 4
  0.5,                                    !- Value Until Time 4
  15,                                     !- Hour 5
  0,                                      !- Minute 5
  0.7,                                    !- Value Until Time 5
  16,                                     !- Hour 6
  0,                                      !- Minute 6
  0.8,                                    !- Value Until Time 6
  17,                                     !- Hour 7
  0,                                      !- Minute 7
  0.7,                                    !- Value Until Time 7
  19,                                     !- Hour 8
  0,                                      !- Minute 8
  0.5,                                    !- Value Until Time 8
  22,                                     !- Hour 9
  0,                                      !- Minute 9
  0.3,                                    !- Value Until Time 9
  24,                                     !- Hour 10
  0,                                      !- Minute 10
  0;                                      !- Value Until Time 10

OS:Schedule:Day,
  {438e8949-814b-49b5-9615-ef1e70589c72}, !- Handle
  0600|2200|SuperMarket|default|occ Summer Design Day, !- Name
  {64a1376d-93c6-41c1-836b-20f128d90112}, !- Schedule Type Limits Name
  ,                                       !- Interpolate to Timestep
  6,                                      !- Hour 1
  0,                                      !- Minute 1
  0,                                      !- Value Until Time 1
  8,                                      !- Hour 2
  0,                                      !- Minute 2
  0.1,                                    !- Value Until Time 2
  9,                                      !- Hour 3
  0,                                      !- Minute 3
  0.2,                                    !- Value Until Time 3
  22,                                     !- Hour 4
  0,                                      !- Minute 4
  1,                                      !- Value Until Time 4
  24,                                     !- Hour 5
  0,                                      !- Minute 5
  0;                                      !- Value Until Time 5

OS:Schedule:Day,
  {af5ccfdc-8620-4ce4-8cf3-ef0275f944a9}, !- Handle
  0600|2200|SuperMarket|default|occ Winter Design Day, !- Name
  {64a1376d-93c6-41c1-836b-20f128d90112}, !- Schedule Type Limits Name
  ,                                       !- Interpolate to Timestep
  24,                                     !- Hour 1
  0,                                      !- Minute 1
  0;                                      !- Value Until Time 1

OS:Schedule:Rule,
  {e968a58e-ebae-45d6-8075-3b420ad2769d}, !- Handle
  0600|2200|SuperMarket|default|occ |1/1-12/31|Sat Rule, !- Name
  {fef2f15d-6324-4c3e-a51e-5ab7e0dff8f9}, !- Schedule Ruleset Name
  0,                                      !- Rule Order
  {b9c469c6-e8e5-450d-98c3-46c14928933d}, !- Day Schedule Name
  ,                                       !- Apply Sunday
  ,                                       !- Apply Monday
  ,                                       !- Apply Tuesday
  ,                                       !- Apply Wednesday
  ,                                       !- Apply Thursday
  ,                                       !- Apply Friday
  Yes,                                    !- Apply Saturday
  ,                                       !- Apply Holiday
  DateRange,                              !- Date Specification Type
  1,                                      !- Start Month
  1,                                      !- Start Day
  12,                                     !- End Month
  31;                                     !- End Day

OS:Schedule:Day,
  {b9c469c6-e8e5-450d-98c3-46c14928933d}, !- Handle
  0600|2200|SuperMarket|default|occ |1/1-12/31|Sat, !- Name
  {64a1376d-93c6-41c1-836b-20f128d90112}, !- Schedule Type Limits Name
  ,                                       !- Interpolate to Timestep
  6,                                      !- Hour 1
  0,                                      !- Minute 1
  0,                                      !- Value Until Time 1
  8,                                      !- Hour 2
  0,                                      !- Minute 2
  0.1,                                    !- Value Until Time 2
  9,                                      !- Hour 3
  0,                                      !- Minute 3
  0.2,                                    !- Value Until Time 3
  10,                                     !- Hour 4
  0,                                      !- Minute 4
  0.5,                                    !- Value Until Time 4
  11,                                     !- Hour 5
  0,                                      !- Minute 5
  0.6,                                    !- Value Until Time 5
  17,                                     !- Hour 6
  0,                                      !- Minute 6
  0.8,                                    !- Value Until Time 6
  18,                                     !- Hour 7
  0,                                      !- Minute 7
  0.6,                                    !- Value Until Time 7
  21,                                     !- Hour 8
  0,                                      !- Minute 8
  0.2,                                    !- Value Until Time 8
  22,                                     !- Hour 9
  0,                                      !- Minute 9
  0.1,                                    !- Value Until Time 9
  24,                                     !- Hour 10
  0,                                      !- Minute 10
  0;                                      !- Value Until Time 10

OS:Schedule:Rule,
  {7f5222a6-4f2d-4408-be9c-13fd5b58871d}, !- Handle
  0600|2200|SuperMarket|default|occ |1/1-12/31|Sun Rule, !- Name
  {fef2f15d-6324-4c3e-a51e-5ab7e0dff8f9}, !- Schedule Ruleset Name
  1,                                      !- Rule Order
  {526ff7a9-bf8f-499f-b6bc-eaf8ea631055}, !- Day Schedule Name
  Yes,                                    !- Apply Sunday
  ,                                       !- Apply Monday
  ,                                       !- Apply Tuesday
  ,                                       !- Apply Wednesday
  ,                                       !- Apply Thursday
  ,                                       !- Apply Friday
  ,                                       !- Apply Saturday
  ,                                       !- Apply Holiday
  DateRange,                              !- Date Specification Type
  1,                                      !- Start Month
  1,                                      !- Start Day
  12,                                     !- End Month
  31;                                     !- End Day

OS:Schedule:Day,
  {526ff7a9-bf8f-499f-b6bc-eaf8ea631055}, !- Handle
  0600|2200|SuperMarket|default|occ |1/1-12/31|Sun, !- Name
  {64a1376d-93c6-41c1-836b-20f128d90112}, !- Schedule Type Limits Name
  ,                                       !- Interpolate to Timestep