
OS:Version,
  {911e4dba-bef5-4bff-be6e-8ee8b527b973}, !- Handle
  1.6.0;                                  !- Version Identifier

OS:ClimateZones,
  {135edfab-17e7-40db-a436-27d385a8cd6d}, !- Handle
  ,                                       !- Active Institution
  ,                                       !- Active Year
  ASHRAE,                                 !- Climate Zone Institution Name 1
  ANSI/ASHRAE Standard 169,               !- Climate Zone Document Name 1
  2006,                                   !- Climate Zone Document Year 1
  ,                                       !- Climate Zone Value 1
  CEC,                                    !- Climate Zone Institution Name 2
  California Climate Zone Descriptions,   !- Climate Zone Document Name 2
  1995,                                   !- Climate Zone Document Year 2
  ;                                       !- Climate Zone Value 2

OS:YearDescription,
  {513d8dda-86cb-442a-b01c-1f7f0e0ac70e}; !- Handle

OS:RadianceParameters,
  {270a96f1-3c86-4b75-a667-cdf22790e2c8}, !- Handle
  1,                                      !- Accumulated Rays per Record
  0,                                      !- Direct Threshold
  1,                                      !- Direct Certainty
  1,                                      !- Direct Jitter
  1,                                      !- Direct Pretest
  6,                                      !- Ambient Bounces VMX
  2,                                      !- Ambient Bounces DMX
  4050,                                   !- Ambient Divisions VMX
  512,                                    !- Ambient Divisions DMX
  256,                                    !- Ambient Supersamples
  0.001,                                  !- Limit Weight VMX
  0.001,                                  !- Limit Weight DMX
  500,                                    !- Klems Sampling Density
  146;                                    !- Sky Discretization Resolution

OS:SimulationControl,
  {2c487a4c-bac9-4ac5-b669-1e49d9da7c2b}, !- Handle
  ,                                       !- Do Zone Sizing Calculation
  ,                                       !- Do System Sizing Calculation
  ,                                       !- Do Plant Sizing Calculation
  No,                                     !- Run Simulation for Sizing Periods
  ,                                       !- Run Simulation for Weather File Run Periods
  0.04,                                   !- Loads Convergence Tolerance Value
  ,                                       !- Temperature Convergence Tolerance Value {deltaC}
  ,                                       !- Solar Distribution
  ,                                       !- Maximum Number of Warmup Days
  2;                                      !- Minimum Number of Warmup Days

OS:Sizing:Parameters,
  {dde5af6f-7923-4600-a28a-7556673a0266}, !- Handle
  1.25,                                   !- Heating Sizing Factor
  1.15;                                   !- Cooling Sizing Factor

OS:ProgramControl,
  {05027a99-f2b3-4aeb-afc6-1425fbb4371d}; !- Handle

OS:Timestep,
  {4ebc9f1e-4707-402e-9844-67eb1ffbd522}, !- Handle
  2;                                      !- Number of Timesteps per Hour

OS:OutputControl:ReportingTolerances,
  {65797aa2-06a9-45fe-b69d-bc6e060399d3}; !- Handle

OS:ConvergenceLimits,
  {9fc11aba-8822-4f3d-970c-46391ba4040d}; !- Handle

OS:ShadowCalculation,
  {ca758bea-4416-4626-9bba-3d8795c79bd6}, !- Handle
  7,                                      !- Calculation Frequency
  15000;                                  !- Maximum Figures in Shadow Overlap Calculations

OS:SurfaceConvectionAlgorithm:Inside,
  {aaabfc36-718a-4ab0-b622-f186ebb45230}, !- Handle
  TARP;                                   !- Algorithm

OS:SurfaceConvectionAlgorithm:Outside,
  {9a0a9f6f-4bbd-4b12-a121-9492a1fcd7d6}, !- Handle
  DOE-2;                                  !- Algorithm

OS:HeatBalanceAlgorithm,
  {9d93e563-e1e0-46d7-9e39-d1c8aceb7212}, !- Handle
  ConductionTransferFunction,             !- Algorithm
  200;                                    !- Surface Temperature Upper Limit {F}

OS:ZoneAirHeatBalanceAlgorithm,
  {8520d93e-310f-4696-9bcd-36228bfdd743}, !- Handle
  AnalyticalSolution;                     !- Algorithm

OS:ZoneAirContaminantBalance,
  {eb5fc3ae-fb22-4160-8fcb-3e3b22b000d3}; !- Handle

OS:ZoneCapacitanceMultiplier:ResearchSpecial,
  {4020ce4f-5a7a-4849-8028-8305d7b751b1}, !- Handle
  ,                                       !- Temperature Capacity Multiplier
  ,                                       !- Humidity Capacity Multiplier
  ;                                       !- Carbon Dioxide Capacity Multiplier

OS:RunPeriod,
  {28df894d-6af9-4fb8-8f56-df1753344aa3}, !- Handle
  Run Period 1,                           !- Name
  1,                                      !- Begin Month
  1,                                      !- Begin Day of Month
  12,                                     !- End Month
  31,                                     !- End Day of Month
  ,                                       !- Use Weather File Holidays and Special Days
  ,                                       !- Use Weather File Daylight Saving Period
  ,                                       !- Apply Weekend Holiday Rule
  ,                                       !- Use Weather File Rain Indicators
  ,                                       !- Use Weather File Snow Indicators
  ;                                       !- Number of Times Runperiod to be Repeated

OS:Building,
  {bf305633-c5a1-4881-9edf-ca5e1a8e1274}, !- Handle
  Building 1,                             !- Name
  ,                                       !- Building Sector Type
  ,                                       !- North Axis {deg}
  ,                                       !- Nominal Floor to Floor Height {m}
  ,                                       !- Space Type Name
  ,                                       !- Default Construction Set Name
  {000e091f-b40d-48d2-83b2-3220c0e61283}, !- Default Schedule Set Name
  ,                                       !- Standards Number of Stories
  ,                                       !- Standards Number of Above Ground Stories
  SuperMarket;                            !- Standards Building Type

OS:LifeCycleCost:Parameters,
  {231cf8a0-f0e7-4251-a99f-11f0d464e661}, !- Handle
  FEMP,                                   !- Analysis Type
  ,                                       !- Discounting Convention
  ,                                       !- Inflation Approach
  ,                                       !- Real Discount Rate
  ,                                       !- Nominal Discount Rate
  ,                                       !- Inflation
  ,                                       !- Base Date Month
  ,                                       !- Base Date Year
  ,                                       !- Service Date Month
  ,                                       !- Service Date Year
  ,                                       !- Length of Study Period in Years
  ,                                       !- Tax Rate
  ,                                       !- Depreciation Method
  Yes;                                    !- Use NIST Fuel Escalation Rates

OS:Facility,
  {3ba8e45b-b833-44eb-a723-ea6c3946dc96}; !- Handle

OS:SpaceType,
  {b94f5340-d8cf-4c9d-84bb-38090bbd3eb2}, !- Handle
  SuperMarket|SalesProduce|DOE Ref Pre-1980|ASHRAE 169-2006-5A, !- Name
  {49b63a2a-0501-4d3b-8ffe-1d439e151296}, !- Default Construction Set Name
  {0237c0ea-adc4-4121-be2d-06f3ef930726}, !- Default Schedule Set Name
  {2415d1a8-84ae-4161-8b45-9a1b86509bd8}, !- Group Rendering Name
  {def959dc-b5f8-45e7-9741-789fd0491a4e}, !- Design Specification Outdoor Air Object Name
  SuperMarket,                            !- Standards Building Type
  SalesProduce;                           !- Standards Space Type

OS:Rendering:Color,
  {2415d1a8-84ae-4161-8b45-9a1b86509bd8}, !- Handle
  Rendering Color 1,                      !- Name
  230,                                    !- Rendering Red Value
  196,                                    !- Rendering Green Value
  120;                                    !- Rendering Blue Value

OS:SpaceType,
  {78b32aa6-b4c6-436d-8965-a7eb15fec3d1}, !- Handle
  SuperMarket|DryStorage|DOE Ref Pre-1980|ASHRAE 169-2006-5A, !- Name
  {49b63a2a-0501-4d3b-8ffe-1d439e151296}, !- Default Construction Set Name
  {d98af2b3-0d59-49db-8c1a-87c4436764e0}, !- Default Schedule Set Name
  {7f30c133-f28d-4245-aaf2-0e85925b4fa7}, !- Group Rendering Name
  {b4815c9e-ced3-4a11-9e51-f58d985bf8fc}, !- Design Specification Outdoor Air Object Name
  SuperMarket,                            !- Standards Building Type
  DryStorage;                             !- Standards Space Type

OS:Rendering:Color,
  {7f30c133-f28d-4245-aaf2-0e85925b4fa7}, !- Handle
  Rendering Color 2,                      !- Name
  120,                                    !- Rendering Red Value
  149,                                    !- Rendering Green Value
  230;                                    !- Rendering Blue Value

OS:SpaceType,
  {b8b9326c-0dc7-4ec7-a8dd-75e33bd7d9d8}, !- Handle
  SuperMarket|DeliBakery|DOE Ref Pre-1980|ASHRAE 169-2006-5A, !- Name
  {49b63a2a-0501-4d3b-8ffe-1d439e151296}, !- Default Construction Set Name
  {ad0f91dc-3094-41a2-b39e-852831149917}, !- Default Schedule Set Name
  {ad145c7b-9750-48b6-9c00-fddb54b521ae}, !- Group Rendering Name
  {dc5b1a45-53cd-46f2-acf5-dd10df998a38}, !- Design Specification Outdoor Air Object Name
  SuperMarket,                            !- Standards Building Type
  DeliBakery;                             !- Standards Space Type

OS:Rendering:Color,
  {ad145c7b-9750-48b6-9c00-fddb54b521ae}, !- Handle
  Rendering Color 3,                      !- Name
  31,                                     !- Rendering Red Value
  169,                                    !- Rendering Green Value
  34;                                     !- Rendering Blue Value

OS:SpaceType,
  {b0d5ee5e-b83e-4077-8afe-746431b696c6}, !- Handle
  SuperMarket|Office|DOE Ref Pre-1980|ASHRAE 169-2006-5A, !- Name
  {49b63a2a-0501-4d3b-8ffe-1d439e151296}, !- Default Construction Set Name
  {a4d08221-a406-4439-aec3-f21f5513bcba}, !- Default Schedule Set Name
  {55a05839-e034-4459-a4b0-3246f18a3c5b}, !- Group Rendering Name
  {98406229-9571-4a6d-9d40-2c0a117a3a95}, !- Design Specification Outdoor Air Object Name
  SuperMarket,                            !- Standards Building Type
  Office;                                 !- Standards Space Type

OS:Rendering:Color,
  {55a05839-e034-4459-a4b0-3246f18a3c5b}, !- Handle
  Rendering Color 4,                      !- Name
  120,                                    !- Rendering Red Value
  230,                                    !- Rendering Green Value
  199;                                    !- Rendering Blue Value

OS:Schedule:Ruleset,
  {00b247f0-edc9-41ad-ae37-a575662dd4db}, !- Handle
  0600|2200|SuperMarket|default|hoo,      !- Name
  {f51b9d41-5ba7-4579-a344-bfd5219a3f09}, !- Schedule Type Limits Name
  {9ddcf9cf-0868-4cf4-b779-54bed4ef1254}, !- Default Day Schedule Name
  {ccf855f4-8839-4b5b-b1cd-206feaac8d87}, !- Summer Design Day Schedule Name
  {ee31baaa-554c-4352-b7da-3e57cc51bfd7}; !- Winter Design Day Schedule Name

OS:Schedule:Day,
  {9ddcf9cf-0868-4cf4-b779-54bed4ef1254}, !- Handle
  0600|2200|SuperMarket|default|hoo Schedule Week Day, !- Name
  {f51b9d41-5ba7-4579-a344-bfd5219a3f09}, !- Schedule Type Limits Name
  ,                                       !- Interpolate to Timestep
  6,                                      !- Hour 1
  0,                                      !- Minute 1
  0,                                      !- Value Until Time 1
  22,                                     !- Hour 2
  0,                                      !- Minute 2
  1,                                      !- Value Until Time 2
  24,                                     !- Hour 3
  0,                                      !- Minute 3
  0;                                      !- Value Until Time 3

OS:Schedule:Day,
  {fa0cd325-ac0d-4685-ba75-1be601bdf84c}, !- Handle
  Schedule Day 2,                         !- Name
  ,                                       !- Schedule Type Limits Name
  ,                                       !- Interpolate to Timestep
  24,                                     !- Hour 1
  0,                                      !- Minute 1
  0;                                      !- Value Until Time 1

OS:Schedule:Day,
  {ee31baaa-554c-4352-b7da-3e57cc51bfd7}, !- Handle
  0600|2200|SuperMarket|default|hoo Winter Design Day, !- Name
  {f51b9d41-5ba7-4579-a344-bfd5219a3f09}, !- Schedule Type Limits Name
  ,                                       !- Interpolate to Timestep
  24,                                     !- Hour 1
  0,                                      !- Minute 1
  0;                                      !- Value Until Time 1

OS:Schedule:Day,
  {be9cafa2-8a3d-4c3e-a59a-60d8d7742935}, !- Handle
  Schedule Day 3,                         !- Name
  ,                                       !- Schedule Type Limits Name
  ,                                       !- Interpolate to Timestep
  24,                                     !- Hour 1
  0,                                      !- Minute 1
  0;                                      !- Value Until Time 1

OS:Schedule:Day,
  {ccf855f4-8839-4b5b-b1cd-206feaac8d87}, !- Handle
  0600|2200|SuperMarket|default|hoo Summer Design Day, !- Name
  {f51b9d41-5ba7-4579-a344-bfd5219a3f09}, !- Schedule Type Limits Name
  ,                                       !- Interpolate to Timestep
  24,                                     !- Hour 1
  0,                                      !- Minute 1
  1;                                      !- Value Until Time 1

OS:DefaultScheduleSet,
  {000e091f-b40d-48d2-83b2-3220c0e61283}, !- Handle
  Building Hours of Operation,            !- Name
  {00b247f0-edc9-41ad-ae37-a575662dd4db}, !- Hours of Operation Schedule Name
  ,                                       !- Number of People Schedule Name
  ,                                       !- People Activity Level Schedule Name
  ,                                       !- Lighting Schedule Name
  ,                                       !- Electric Equipment Schedule Name
  ,                                       !- Gas Equipment Schedule Name
  ,                                       !- Hot Water Equipment Schedule Name
  ,                                       !- Infiltration Schedule Name
  ,                                       !- Steam Equipment Schedule Name
  ;                                       !- Other Equipment Schedule Name

OS:ScheduleTypeLimits,
  {f51b9d41-5ba7-4579-a344-bfd5219a3f09}, !- Handle
  OnOff,                                  !- Name
  0,                                      !- Lower Limit Value {BasedOnField A4}
  1,                                      !- Upper Limit Value {BasedOnField A4}
  Discrete,                               !- Numeric Type
  Availability;                           !- Unit Type

OS:Schedule:Ruleset,
  {46d2d3a4-01da-4cfa-8292-ec7c9655b5d1}, !- Handle
  0600|2200|SuperMarket|default|thermal_ctrl, !- Name
  {0765622d-a38e-464a-bf6b-78aee2fd9b47}, !- Schedule Type Limits Name
  {ba564308-1e17-4f99-bef9-999008725896}, !- Default Day Schedule Name
  {8d983466-c774-4a71-9108-426958968550}, !- Summer Design Day Schedule Name
  {712bad2b-fb11-4dd8-99e2-d01ca84d7ebf}; !- Winter Design Day Schedule Name

OS:ScheduleTypeLimits,
  {0765622d-a38e-464a-bf6b-78aee2fd9b47}, !- Handle
  Dimensionless Schedule Type Limits,     !- Name
  ,                                       !- Lower Limit Value {BasedOnField A4}
  ,                                       !- Upper Limit Value {BasedOnField A4}
  Continuous,                             !- Numeric Type
  Dimensionless;                          !- Unit Type

OS:Schedule:Day,
  {ba564308-1e17-4f99-bef9-999008725896}, !- Handle
  0600|2200|SuperMarket|default|thermal_ctrl |default, !- Name
  {0765622d-a38e-464a-bf6b-78aee2fd9b47}, !- Schedule Type Limits Name
  ,                                       !- Interpolate to Timestep
  24,                                     !- Hour 1
  0,                                      !- Minute 1
  4;                                      !- Value Until Time 1

OS:Schedule:Day,
  {8d983466-c774-4a71-9108-426958968550}, !- Handle
  0600|2200|SuperMarket|default|thermal_ctrl Summer Design Day, !- Name
  {0765622d-a38e-464a-bf6b-78aee2fd9b47}, !- Schedule Type Limits Name
  ,                                       !- Interpolate to Timestep
  24,                                     !- Hour 1
  0,                                      !- Minute 1
  4;                                      !- Value Until Time 1

OS:Schedule:Day,
  {712bad2b-fb11-4dd8-99e2-d01ca84d7ebf}, !- Handle
  0600|2200|SuperMarket|default|thermal_ctrl Winter Design Day, !- Name
  {0765622d-a38e-464a-bf6b-78aee2fd9b47}, !- Schedule Type Limits Name
  ,                                       !- Interpolate to Timestep
  24,                                     !- Hour 1
  0,                                      !- Minute 1
  4;                                      !- Value Until Time 1

OS:Schedule:Ruleset,
  {82ce1c48-a513-40b7-af32-a8f48b84f4bb}, !- Handle
  0600|2200|SuperMarket|default|ext_lighting, !- Name
  {2d42af15-959b-4645-befb-b2a1c868509c}, !- Schedule Type Limits Name
  {b9deb166-2e4d-43e5-90e4-e00b2acfa6a4}, !- Default Day Schedule Name
  {07965c1b-e332-45c3-b5ea-0faad0c5ba76}, !- Summer Design Day Schedule Name
  {81ce86c0-be51-4365-84f8-2e8e09d60d7f}; !- Winter Design Day Schedule Name

OS:ScheduleTypeLimits,
  {2d42af15-959b-4645-befb-b2a1c868509c}, !- Handle
  Lights Schedule Type Limits,            !- Name
  0,                                      !- Lower Limit Value {BasedOnField A4}
  1,                                      !- Upper Limit Value {BasedOnField A4}
  Continuous,                             !- Numeric Type
  Dimensionless;                          !- Unit Type

OS:Schedule:Day,
  {b9deb166-2e4d-43e5-90e4-e00b2acfa6a4}, !- Handle
  0600|2200|SuperMarket|default|ext_lighting |default, !- Name
  {2d42af15-959b-4645-befb-b2a1c868509c}, !- Schedule Type Limits Name
  ,                                       !- Interpolate to Timestep
  24,                                     !- Hour 1
  0,                                      !- Minute 1
  1;                                      !- Value Until Time 1

OS:Schedule:Day,
  {07965c1b-e332-45c3-b5ea-0faad0c5ba76}, !- Handle
  0600|2200|SuperMarket|default|ext_lighting Summer Design Day, !- Name
  {2d42af15-959b-4645-befb-b2a1c868509c}, !- Schedule Type Limits Name
  ,                                       !- Interpolate to Timestep
  24,                                     !- Hour 1
  0,                                      !- Minute 1
  1;                                      !- Value Until Time 1

OS:Schedule:Day,
  {81ce86c0-be51-4365-84f8-2e8e09d60d7f}, !- Handle
  0600|2200|SuperMarket|default|ext_lighting Winter Design Day, !- Name
  {2d42af15-959b-4645-befb-b2a1c868509c}, !- Schedule Type Limits Name
  ,                                       !- Interpolate to Timestep
  24,                                     !- Hour 1
  0,                                      !- Minute 1
  1;                                      !- Value Until Time 1

OS:Schedule:Ruleset,
  {9a407656-4c3c-4b21-811c-41008389a34d}, !- Handle
  0600|2200|SuperMarket|default|rh,       !- Name
  {0765622d-a38e-464a-bf6b-78aee2fd9b47}, !- Schedule Type Limits Name
  {f4d72a53-19be-46a0-bebf-506f21b7ccd0}, !- Default Day Schedule Name
  {30f5fae1-5b71-4635-a85f-349c5b71feca}, !- Summer Design Day Schedule Name
  {2a931f8d-0bb7-4706-ad32-0e23ae0f5b7e}; !- Winter Design Day Schedule Name

OS:Schedule:Day,
  {f4d72a53-19be-46a0-bebf-506f21b7ccd0}, !- Handle
  0600|2200|SuperMarket|default|rh |default, !- Name
  {0765622d-a38e-464a-bf6b-78aee2fd9b47}, !- Schedule Type Limits Name
  ,                                       !- Interpolate to Timestep
  24,                                     !- Hour 1
  0,                                      !- Minute 1
  50;                                     !- Value Until Time 1

OS:Schedule:Day,
  {30f5fae1-5b71-4635-a85f-349c5b71feca}, !- Handle
  0600|2200|SuperMarket|default|rh Summer Design Day, !- Name
  {0765622d-a38e-464a-bf6b-78aee2fd9b47}, !- Schedule Type Limits Name
  ,                                       !- Interpolate to Timestep
  24,                                     !- Hour 1
  0,                                      !- Minute 1
  50;                                     !- Value Until Time 1

OS:Schedule:Day,
  {2a931f8d-0bb7-4706-ad32-0e23ae0f5b7e}, !- Handle
  0600|2200|SuperMarket|default|rh Winter Design Day, !- Name
  {0765622d-a38e-464a-bf6b-78aee2fd9b47}, !- Schedule Type Limits Name
  ,                                       !- Interpolate to Timestep
  24,                                     !- Hour 1
  0,                                      !- Minute 1
  50;                                     !- Value Until Time 1

OS:Schedule:Ruleset,
  {296261cc-33ca-47e2-8c6e-403de25c0b1d}, !- Handle
  0600|2200|SuperMarket|default|occ,      !- Name
  {20e6e684-dd83-4bb0-b127-2cf5c8f74c79}, !- Schedule Type Limits Name
  {e8057e3e-6dc3-4003-bb73-53b2a9f93fa7}, !- Default Day Schedule Name
  {e6b2bc22-3dca-41d8-847d-b0b2bedc1962}, !- Summer Design Day Schedule Name
  {35165933-93d9-4cd3-86db-2124078cd7aa}; !- Winter Design Day Schedule Name

OS:ScheduleTypeLimits,
  {20e6e684-dd83-4bb0-b127-2cf5c8f74c79}, !- Handle
  Occupancy Schedule Type Limits,         !- Name
  0,                                      !- Lower Limit Value {BasedOnField A4}
  1,                                      !- Upper Limit Value {BasedOnField A4}
  Continuous,                             !- Numeric Type
  Dimensionless;                          !- Unit Type

OS:Schedule:Day,
  {e8057e3e-6dc3-4003-bb73-53b2a9f93fa7}, !- Handle
  0600|2200|SuperMarket|default|occ |default, !- Name
  {20e6e684-dd83-4bb0-b127-2cf5c8f74c79}, !- Schedule Type Limits Name
  ,                                       !- Interpolate to Timestep
  6,                                      !- Hour 1
  0,                                      !- Minute 1
  0,                                      !- Value Until Time 1
  8,                                      !- Hour 2
  0,                                      !- Minute 2
  0.1,                                    !- Value Until Time 2
  9,                                      !- Hour 3
  0,                                      !- Minute 3
  0.2,                                    !- Value Until Time 3
  11,                                     !- Hour 4
  0,                                      !- Minute 4
  0.5,                                    !- Value Until Time 4
  15,                                     !- Hour 5
  0,                                      !- Minute 5
  0.7,                                    !- Value Until Time 5
  16,                                     !- Hour 6
  0,                                      !- Minute 6
  0.8,                                    !- Value Until Time 6
  17,                                     !- Hour 7
  0,                                      !- Minute 7
  0.7,                                    !- Value Until Time 7
  19,                                     !- Hour 8
  0,                                      !- Minute 8
  0.5,                                    !- Value Until Time 8
  22,                                     !- Hour 9
  0,                                      !- Minute 9
  0.3,                                    !- Value Until Time 9
  24,                                     !- Hour 10
  0,                                      !- Minute 10
  0;                                      !- Value Until Time 10

OS:Schedule:Day,
  {e6b2bc22-3dca-41d8-847d-b0b2bedc1962}, !- Handle
  0600|2200|SuperMarket|default|occ Summer Design Day, !- Name
  {20e6e684-dd83-4bb0-b127-2cf5c8f74c79}, !- Schedule Type Limits Name
  ,                                       !- Interpolate to Timestep
  6,                                      !- Hour 1
  0,                                      !- Minute 1
  0,                                      !- Value Until Time 1
  8,                                      !- Hour 2
  0,                                      !- Minute 2
  0.1,                                    !- Value Until Time 2
  9,                                      !- Hour 3
  0,                                      !- Minute 3
  0.2,                                    !- Value Until Time 3
  22,                                     !- Hour 4
  0,                                      !- Minute 4
  1,                                      !- Value Until Time 4
  24,                                     !- Hour 5
  0,                                      !- Minute 5
  0;                                      !- Value Until Time 5

OS:Schedule:Day,
  {35165933-93d9-4cd3-86db-2124078cd7aa}, !- Handle
  0600|2200|SuperMarket|default|occ Winter Design Day, !- Name
  {20e6e684-dd83-4bb0-b127-2cf5c8f74c79}, !- Schedule Type Limits Name
  ,                                       !- Interpolate to Timestep
  24,                                     !- Hour 1
  0,                                      !- Minute 1
  0;                                      !- Value Until Time 1

OS:Schedule:Rule,
  {1d8b2dc1-02dd-493a-87d1-4ce50ee6878e}, !- Handle
  0600|2200|SuperMarket|default|occ |1/1-12/31|Sat Rule, !- Name
  {296261cc-33ca-47e2-8c6e-403de25c0b1d}, !- Schedule Ruleset Name
  0,                                      !- Rule Order
  {043d3d33-54c4-4064-88f7-7e1cc9c37442}, !- Day Schedule Name
  ,                                       !- Apply Sunday
  ,                                       !- Apply Monday
  ,                                       !- Apply Tuesday
  ,                                       !- Apply Wednesday
  ,                                       !- Apply Thursday
  ,                                       !- Apply Friday
  Yes,                                    !- Apply Saturday
  ,                                       !- Apply Holiday
  DateRange,                              !- Date Specification Type
  1,                                      !- Start Month
  1,                                      !- Start Day
  12,                                     !- End Month
  31;                                     !- End Day

OS:Schedule:Day,
  {043d3d33-54c4-4064-88f7-7e1cc9c37442}, !- Handle
  0600|2200|SuperMarket|default|occ |1/1-12/31|Sat, !- Name
  {20e6e684-dd83-4bb0-b127-2cf5c8f74c79}, !- Schedule Type Limits Name
  ,                                       !- Interpolate to Timestep
  6,                                      !- Hour 1
  0,                                      !- Minute 1
  0,                                      !- Value Until Time 1
  8,                                      !- Hour 2
  0,                                      !- Minute 2
  0.1,                                    !- Value Until Time 2
  9,                                      !- Hour 3
  0,                                      !- Minute 3
  0.2,                                    !- Value Until Time 3
  10,                                     !- Hour 4
  0,                                      !- Minute 4
  0.5,                                    !- Value Until Time 4
  11,                                     !- Hour 5
  0,                                      !- Minute 5
  0.6,                                    !- Value Until Time 5
  17,                                     !- Hour 6
  0,                                      !- Minute 6
  0.8,                                    !- Value Until Time 6
  18,                                     !- Hour 7
  0,                                      !- Minute 7
  0.6,                                    !- Value Until Time 7
  21,                                     !- Hour 8
  0,                                      !- Minute 8
  0.2,                                    !- Value Until Time 8
  22,                                     !- Hour 9
  0,                                      !- Minute 9
  0.1,                                    !- Value Until Time 9
  24,                                     !- Hour 10
  0,                                      !- Minute 10
  0;                                      !- Value Until Time 10

OS:Schedule:Rule,
  {6346d3a1-e2f1-49ba-806a-d5481a35111b}, !- Handle
  0600|2200|SuperMarket|default|occ |1/1-12/31|Sun Rule, !- Name
  {296261cc-33ca-47e2-8c6e-403de25c0b1d}, !- Schedule Ruleset Name
  1,                                      !- Rule Order
  {aa5d1f2e-e779-4552-8e19-d7841ba2af24}, !- Day Schedule Name
  Yes,                                    !- Apply Sunday
  ,                                       !- Apply Monday
  ,                                       !- Apply Tuesday
  ,                                       !- Apply Wednesday
  ,                                       !- Apply Thursday
  ,                                       !- Apply Friday
  ,                                       !- Apply Saturday
  ,                                       !- Apply Holiday
  DateRange,                              !- Date Specification Type
  1,                                      !- Start Month
  1,                                      !- Start Day
  12,                                     !- End Month
  31;                                     !- End Day

OS:Schedule:Day,
  {aa5d1f2e-e779-4552-8e19-d7841ba2af24}, !- Handle
  0600|2200|SuperMarket|default|occ |1/1-12/31|Sun, !- Name
  {20e6e684-dd83-4bb0-b127-2cf5c8f74c79}, !- Schedule Type Limits Name
  ,                                       !- Interpolate to Timestep