
OS:Version,
  {97c1b3d9-3da3-4efb-84de-5a65b23d4a79}, !- Handle
  1.5.5;                                  !- Version Identifier

OS:ClimateZones,
  {135edfab-17e7-40db-a436-27d385a8cd6d}, !- Handle
  ,                                       !- Active Institution
  ,                                       !- Active Year
  ASHRAE,                                 !- Climate Zone Institution Name 1
  ANSI/ASHRAE Standard 169,               !- Climate Zone Document Name 1
  2006,                                   !- Climate Zone Document Year 1
  ,                                       !- Climate Zone Value 1
  CEC,                                    !- Climate Zone Institution Name 2
  California Climate Zone Descriptions,   !- Climate Zone Document Name 2
  1995,                                   !- Climate Zone Document Year 2
  ;                                       !- Climate Zone Value 2

OS:YearDescription,
  {513d8dda-86cb-442a-b01c-1f7f0e0ac70e}; !- Handle

OS:RadianceParameters,
  {270a96f1-3c86-4b75-a667-cdf22790e2c8}, !- Handle
  1,                                      !- Accumulated Rays per Record
  0,                                      !- Direct Threshold
  1,                                      !- Direct Certainty
  1,                                      !- Direct Jitter
  1,                                      !- Direct Pretest
  6,                                      !- Ambient Bounces VMX
  2,                                      !- Ambient Bounces DMX
  4050,                                   !- Ambient Divisions VMX
  512,                                    !- Ambient Divisions DMX
  256,                                    !- Ambient Supersamples
  0.001,                                  !- Limit Weight VMX
  0.001,                                  !- Limit Weight DMX
  500,                                    !- Klems Sampling Density
  146;                                    !- Sky Discretization Resolution

OS:SimulationControl,
  {2c487a4c-bac9-4ac5-b669-1e49d9da7c2b}, !- Handle
  ,                                       !- Do Zone Sizing Calculation
  ,                                       !- Do System Sizing Calculation
  ,                                       !- Do Plant Sizing Calculation
  No,                                     !- Run Simulation for Sizing Periods
  ,                                       !- Run Simulation for Weather File Run Periods
  0.04,                                   !- Loads Convergence Tolerance Value
  ,                                       !- Temperature Convergence Tolerance Value {deltaC}
  ,                                       !- Solar Distribution
  ,                                       !- Maximum Number of Warmup Days
  2;                                      !- Minimum Number of Warmup Days

OS:Sizing:Parameters,
  {dde5af6f-7923-4600-a28a-7556673a0266}, !- Handle
  1.25,                                   !- Heating Sizing Factor
  1.15;                                   !- Cooling Sizing Factor

OS:ProgramControl,
  {05027a99-f2b3-4aeb-afc6-1425fbb4371d}; !- Handle

OS:Timestep,
  {4ebc9f1e-4707-402e-9844-67eb1ffbd522}, !- Handle
  2;                                      !- Number of Timesteps per Hour

OS:OutputControl:ReportingTolerances,
  {65797aa2-06a9-45fe-b69d-bc6e060399d3}; !- Handle

OS:ConvergenceLimits,
  {9fc11aba-8822-4f3d-970c-46391ba4040d}; !- Handle

OS:ShadowCalculation,
  {ca758bea-4416-4626-9bba-3d8795c79bd6}, !- Handle
  7,                                      !- Calculation Frequency
  15000;                                  !- Maximum Figures in Shadow Overlap Calculations

OS:SurfaceConvectionAlgorithm:Inside,
  {aaabfc36-718a-4ab0-b622-f186ebb45230}, !- Handle
  TARP;                                   !- Algorithm

OS:SurfaceConvectionAlgorithm:Outside,
  {9a0a9f6f-4bbd-4b12-a121-9492a1fcd7d6}, !- Handle
  DOE-2;                                  !- Algorithm

OS:HeatBalanceAlgorithm,
  {9d93e563-e1e0-46d7-9e39-d1c8aceb7212}, !- Handle
  ConductionTransferFunction,             !- Algorithm
  200;                                    !- Surface Temperature Upper Limit {F}

OS:ZoneAirHeatBalanceAlgorithm,
  {8520d93e-310f-4696-9bcd-36228bfdd743}, !- Handle
  AnalyticalSolution;                     !- Algorithm

OS:ZoneAirContaminantBalance,
  {eb5fc3ae-fb22-4160-8fcb-3e3b22b000d3}; !- Handle

OS:ZoneCapacitanceMultiplier:ResearchSpecial,
  {4020ce4f-5a7a-4849-8028-8305d7b751b1}, !- Handle
  ,                                       !- Temperature Capacity Multiplier
  ,                                       !- Humidity Capacity Multiplier
  ;                                       !- Carbon Dioxide Capacity Multiplier

OS:RunPeriod,
  {28df894d-6af9-4fb8-8f56-df1753344aa3}, !- Handle
  Run Period 1,                           !- Name
  1,                                      !- Begin Month
  1,                                      !- Begin Day of Month
  12,                                     !- End Month
  31,                                     !- End Day of Month
  ,                                       !- Use Weather File Holidays and Special Days
  ,                                       !- Use Weather File Daylight Saving Period
  ,                                       !- Apply Weekend Holiday Rule
  ,                                       !- Use Weather File Rain Indicators
  ,                                       !- Use Weather File Snow Indicators
  ;                                       !- Number of Times Runperiod to be Repeated

OS:Building,
  {bf305633-c5a1-4881-9edf-ca5e1a8e1274}, !- Handle
  Building 1,                             !- Name
  ,                                       !- Building Sector Type
  ,                                       !- North Axis {deg}
  ,                                       !- Nominal Floor to Floor Height {m}
  ,                                       !- Space Type Name
  ,                                       !- Default Construction Set Name
  {c8be99ac-3d8a-4799-b146-a321616b3127}, !- Default Schedule Set Name
  ,                                       !- Standards Number of Stories
  ,                                       !- Standards Number of Above Ground Stories
  SuperMarket;                            !- Standards Building Type

OS:LifeCycleCost:Parameters,
  {231cf8a0-f0e7-4251-a99f-11f0d464e661}, !- Handle
  FEMP,                                   !- Analysis Type
  ,                                       !- Discounting Convention
  ,                                       !- Inflation Approach
  ,                                       !- Real Discount Rate
  ,                                       !- Nominal Discount Rate
  ,                                       !- Inflation
  ,                                       !- Base Date Month
  ,                                       !- Base Date Year
  ,                                       !- Service Date Month
  ,                                       !- Service Date Year
  ,                                       !- Length of Study Period in Years
  ,                                       !- Tax Rate
  ,                                       !- Depreciation Method
  Yes;                                    !- Use NIST Fuel Escalation Rates

OS:Facility,
  {3ba8e45b-b833-44eb-a723-ea6c3946dc96}; !- Handle

OS:SpaceType,
  {7c802bad-dba8-4b59-af2a-988c4aaab890}, !- Handle
  SuperMarket|Sales/Produce|DOE Ref Pre-1980|ASHRAE 169-2006-5A, !- Name
  {96d1ef94-69d8-4ebb-bce4-fa50bb3f5248}, !- Default Construction Set Name
  {6ae20b37-27e7-4914-bde3-8b2f69d0c8bf}, !- Default Schedule Set Name
  {16d18d2e-618b-454a-80b4-5c7baf385b8e}, !- Group Rendering Name
  {77b5fe08-42fe-4107-b99d-08c6a0d302b0}, !- Design Specification Outdoor Air Object Name
  SuperMarket,                            !- Standards Building Type
  Sales/Produce;                          !- Standards Space Type

OS:Rendering:Color,
  {16d18d2e-618b-454a-80b4-5c7baf385b8e}, !- Handle
  Rendering Color 1,                      !- Name
  230,                                    !- Rendering Red Value
  196,                                    !- Rendering Green Value
  120;                                    !- Rendering Blue Value

OS:SpaceType,
  {42f1844b-95c6-4fdf-b099-40117962846a}, !- Handle
  SuperMarket|DryStorage|DOE Ref Pre-1980|ASHRAE 169-2006-5A, !- Name
  {96d1ef94-69d8-4ebb-bce4-fa50bb3f5248}, !- Default Construction Set Name
  {06608a7f-3aae-40f4-a8da-26b277a997ce}, !- Default Schedule Set Name
  {364645f5-d2f2-471f-bb95-fb03d432be50}, !- Group Rendering Name
  {f90d643d-3c86-41c7-b25f-6f3553598a5d}, !- Design Specification Outdoor Air Object Name
  SuperMarket,                            !- Standards Building Type
  DryStorage;                             !- Standards Space Type

OS:Rendering:Color,
  {364645f5-d2f2-471f-bb95-fb03d432be50}, !- Handle
  Rendering Color 2,                      !- Name
  120,                                    !- Rendering Red Value
  149,                                    !- Rendering Green Value
  230;                                    !- Rendering Blue Value

OS:SpaceType,
  {b6ac5ba6-435e-48bc-be32-a4a69b2d2c7d}, !- Handle
  SuperMarket|Deli/Bakery|DOE Ref Pre-1980|ASHRAE 169-2006-5A, !- Name
  {96d1ef94-69d8-4ebb-bce4-fa50bb3f5248}, !- Default Construction Set Name
  {efff614b-4ac0-4883-8bc9-4fccebaaf291}, !- Default Schedule Set Name
  {32f5d7ab-b99f-4810-b517-57d0205ada07}, !- Group Rendering Name
  {2fa9c258-76cc-413b-9b30-70fbb6e8def7}, !- Design Specification Outdoor Air Object Name
  SuperMarket,                            !- Standards Building Type
  Deli/Bakery;                            !- Standards Space Type

OS:Rendering:Color,
  {32f5d7ab-b99f-4810-b517-57d0205ada07}, !- Handle
  Rendering Color 3,                      !- Name
  31,                                     !- Rendering Red Value
  169,                                    !- Rendering Green Value
  34;                                     !- Rendering Blue Value

OS:SpaceType,
  {7ca85bbf-6fcd-4714-8a8a-b8bd27d28977}, !- Handle
  SuperMarket|Office|DOE Ref Pre-1980|ASHRAE 169-2006-5A, !- Name
  {96d1ef94-69d8-4ebb-bce4-fa50bb3f5248}, !- Default Construction Set Name
  {2b918a01-1790-43f8-baa9-b966894b6bb4}, !- Default Schedule Set Name
  {b774c658-ae26-468b-bac7-a5c8b148c773}, !- Group Rendering Name
  {5d17c801-e938-4459-97b1-7842b15068b0}, !- Design Specification Outdoor Air Object Name
  SuperMarket,                            !- Standards Building Type
  Office;                                 !- Standards Space Type

OS:Rendering:Color,
  {b774c658-ae26-468b-bac7-a5c8b148c773}, !- Handle
  Rendering Color 4,                      !- Name
  120,                                    !- Rendering Red Value
  230,                                    !- Rendering Green Value
  199;                                    !- Rendering Blue Value

OS:Schedule:Ruleset,
  {6c185473-020c-4b79-8d23-d5f9114a03f4}, !- Handle
  0600|2200|SuperMarket|default|hoo,      !- Name
  {3e6ae9f1-4be8-4852-8f21-d8b0976b16e2}, !- Schedule Type Limits Name
  {f07cb296-2eaf-44fc-9490-67659a62b404}, !- Default Day Schedule Name
  {1305a7ab-ffba-4f73-bfb6-3e38eb706159}, !- Summer Design Day Schedule Name
  {4ff0d42a-b213-4e34-a452-57c556c38cad}; !- Winter Design Day Schedule Name

OS:Schedule:Day,
  {f07cb296-2eaf-44fc-9490-67659a62b404}, !- Handle
  0600|2200|SuperMarket|default|hoo Schedule Week Day, !- Name
  {3e6ae9f1-4be8-4852-8f21-d8b0976b16e2}, !- Schedule Type Limits Name
  ,                                       !- Interpolate to Timestep
  6,                                      !- Hour 1
  0,                                      !- Minute 1
  0,                                      !- Value Until Time 1
  22,                                     !- Hour 2
  0,                                      !- Minute 2
  1,                                      !- Value Until Time 2
  24,                                     !- Hour 3
  0,                                      !- Minute 3
  0;                                      !- Value Until Time 3

OS:Schedule:Day,
  {503cff7c-1a3f-4f3b-9751-d9741525414e}, !- Handle
  Schedule Day 2,                         !- Name
  ,                                       !- Schedule Type Limits Name
  ,                                       !- Interpolate to Timestep
  24,                                     !- Hour 1
  0,                                      !- Minute 1
  0;                                      !- Value Until Time 1

OS:Schedule:Day,
  {4ff0d42a-b213-4e34-a452-57c556c38cad}, !- Handle
  0600|2200|SuperMarket|default|hoo Winter Design Day, !- Name
  {3e6ae9f1-4be8-4852-8f21-d8b0976b16e2}, !- Schedule Type Limits Name
  ,                                       !- Interpolate to Timestep
  24,                                     !- Hour 1
  0,                                      !- Minute 1
  0;                                      !- Value Until Time 1

OS:Schedule:Day,
  {b78e19b4-7a9f-41f5-94e7-ad087396aa96}, !- Handle
  Schedule Day 3,                         !- Name
  ,                                       !- Schedule Type Limits Name
  ,                                       !- Interpolate to Timestep
  24,                                     !- Hour 1
  0,                                      !- Minute 1
  0;                                      !- Value Until Time 1

OS:Schedule:Day,
  {1305a7ab-ffba-4f73-bfb6-3e38eb706159}, !- Handle
  0600|2200|SuperMarket|default|hoo Summer Design Day, !- Name
  {3e6ae9f1-4be8-4852-8f21-d8b0976b16e2}, !- Schedule Type Limits Name
  ,                                       !- Interpolate to Timestep
  24,                                     !- Hour 1
  0,                                      !- Minute 1
  1;                                      !- Value Until Time 1

OS:DefaultScheduleSet,
  {c8be99ac-3d8a-4799-b146-a321616b3127}, !- Handle
  Building Hours of Operation,            !- Name
  {6c185473-020c-4b79-8d23-d5f9114a03f4}, !- Hours of Operation Schedule Name
  ,                                       !- Number of People Schedule Name
  ,                                       !- People Activity Level Schedule Name
  ,                                       !- Lighting Schedule Name
  ,                                       !- Electric Equipment Schedule Name
  ,                                       !- Gas Equipment Schedule Name
  ,                                       !- Hot Water Equipment Schedule Name
  ,                                       !- Infiltration Schedule Name
  ,                                       !- Steam Equipment Schedule Name
  ;                                       !- Other Equipment Schedule Name

OS:ScheduleTypeLimits,
  {3e6ae9f1-4be8-4852-8f21-d8b0976b16e2}, !- Handle
  OnOff,                                  !- Name
  0,                                      !- Lower Limit Value {BasedOnField A4}
  1,                                      !- Upper Limit Value {BasedOnField A4}
  Discrete,                               !- Numeric Type
  Availability;                           !- Unit Type

OS:Schedule:Ruleset,
  {251e723c-8e49-44ef-a1a2-6f4dc7baa152}, !- Handle
  0600|2200|SuperMarket|default|occ,      !- Name
  {278f55ae-fe97-42a2-b0a9-b00b211a63f8}, !- Schedule Type Limits Name
  {dca7ef10-98eb-41db-86d0-d38258b8853f}, !- Default Day Schedule Name
  {e6b82752-3a88-4b54-9501-11de6d4d859d}, !- Summer Design Day Schedule Name
  {ae35957c-17eb-49fd-8738-f644a359cdf3}; !- Winter Design Day Schedule Name

OS:ScheduleTypeLimits,
  {278f55ae-fe97-42a2-b0a9-b00b211a63f8}, !- Handle
  Occupancy Schedule Type Limits,         !- Name
  0,                                      !- Lower Limit Value {BasedOnField A4}
  1,                                      !- Upper Limit Value {BasedOnField A4}
  Continuous,                             !- Numeric Type
  Dimensionless;                          !- Unit Type

OS:Schedule:Day,
  {dca7ef10-98eb-41db-86d0-d38258b8853f}, !- Handle
  0600|2200|SuperMarket|default|occ |default, !- Name
  {278f55ae-fe97-42a2-b0a9-b00b211a63f8}, !- Schedule Type Limits Name
  ,                                       !- Interpolate to Timestep
  6,                                      !- Hour 1
  0,                                      !- Minute 1
  0,                                      !- Value Until Time 1
  8,                                      !- Hour 2
  0,                                      !- Minute 2
  0.1,                                    !- Value Until Time 2
  9,                                      !- Hour 3
  0,                                      !- Minute 3
  0.2,                                    !- Value Until Time 3
  11,                                     !- Hour 4
  0,                                      !- Minute 4
  0.5,                                    !- Value Until Time 4
  15,                                     !- Hour 5
  0,                                      !- Minute 5
  0.7,                                    !- Value Until Time 5
  16,                                     !- Hour 6
  0,                                      !- Minute 6
  0.8,                                    !- Value Until Time 6
  17,                                     !- Hour 7
  0,                                      !- Minute 7
  0.7,                                    !- Value Until Time 7
  19,                                     !- Hour 8
  0,                                      !- Minute 8
  0.5,                                    !- Value Until Time 8
  22,                                     !- Hour 9
  0,                                      !- Minute 9
  0.3,                                    !- Value Until Time 9
  24,                                     !- Hour 10
  0,                                      !- Minute 10
  0;                                      !- Value Until Time 10

OS:Schedule:Day,
  {e6b82752-3a88-4b54-9501-11de6d4d859d}, !- Handle
  0600|2200|SuperMarket|default|occ Summer Design Day, !- Name
  {278f55ae-fe97-42a2-b0a9-b00b211a63f8}, !- Schedule Type Limits Name
  ,                                       !- Interpolate to Timestep
  6,                                      !- Hour 1
  0,                                      !- Minute 1
  0,                                      !- Value Until Time 1
  8,                                      !- Hour 2
  0,                                      !- Minute 2
  0.1,                                    !- Value Until Time 2
  9,                                      !- Hour 3
  0,                                      !- Minute 3
  0.2,                                    !- Value Until Time 3
  22,                                     !- Hour 4
  0,                                      !- Minute 4
  1,                                      !- Value Until Time 4
  24,                                     !- Hour 5
  0,                                      !- Minute 5
  0;                                      !- Value Until Time 5

OS:Schedule:Day,
  {ae35957c-17eb-49fd-8738-f644a359cdf3}, !- Handle
  0600|2200|SuperMarket|default|occ Winter Design Day, !- Name
  {278f55ae-fe97-42a2-b0a9-b00b211a63f8}, !- Schedule Type Limits Name
  ,                                       !- Interpolate to Timestep
  24,                                     !- Hour 1
  0,                                      !- Minute 1
  0;                                      !- Value Until Time 1

OS:Schedule:Rule,
  {0dda49e4-9655-4920-8775-a1c21e821a1b}, !- Handle
  0600|2200|SuperMarket|default|occ |1/1-12/31|Sat Rule, !- Name
  {251e723c-8e49-44ef-a1a2-6f4dc7baa152}, !- Schedule Ruleset Name
  0,                                      !- Rule Order
  {5356bbb0-5ef0-4a7a-b172-75b439e852fd}, !- Day Schedule Name
  ,                                       !- Apply Sunday
  ,                                       !- Apply Monday
  ,                                       !- Apply Tuesday
  ,                                       !- Apply Wednesday
  ,                                       !- Apply Thursday
  ,                                       !- Apply Friday
  Yes,                                    !- Apply Saturday
  ,                                       !- Apply Holiday
  DateRange,                              !- Date Specification Type
  1,                                      !- Start Month
  1,                                      !- Start Day
  12,                                     !- End Month
  31;                                     !- End Day

OS:Schedule:Day,
  {5356bbb0-5ef0-4a7a-b172-75b439e852fd}, !- Handle
  0600|2200|SuperMarket|default|occ |1/1-12/31|Sat, !- Name
  {278f55ae-fe97-42a2-b0a9-b00b211a63f8}, !- Schedule Type Limits Name
  ,                                       !- Interpolate to Timestep
  6,                                      !- Hour 1
  0,                                      !- Minute 1
  0,                                      !- Value Until Time 1
  8,                                      !- Hour 2
  0,                                      !- Minute 2
  0.1,                                    !- Value Until Time 2
  9,                                      !- Hour 3
  0,                                      !- Minute 3
  0.2,                                    !- Value Until Time 3
  10,                                     !- Hour 4
  0,                                      !- Minute 4
  0.5,                                    !- Value Until Time 4
  11,                                     !- Hour 5
  0,                                      !- Minute 5
  0.6,                                    !- Value Until Time 5
  17,                                     !- Hour 6
  0,                                      !- Minute 6
  0.8,                                    !- Value Until Time 6
  18,                                     !- Hour 7
  0,                                      !- Minute 7
  0.6,                                    !- Value Until Time 7
  21,                                     !- Hour 8
  0,                                      !- Minute 8
  0.2,                                    !- Value Until Time 8
  22,                                     !- Hour 9
  0,                                      !- Minute 9
  0.1,                                    !- Value Until Time 9
  24,                                     !- Hour 10
  0,                                      !- Minute 10
  0;                                      !- Value Until Time 10

OS:Schedule:Rule,
  {b4cdbfe7-8bb1-4965-9e51-31a84eaf7f93}, !- Handle
  0600|2200|SuperMarket|default|occ |1/1-12/31|Sun Rule, !- Name
  {251e723c-8e49-44ef-a1a2-6f4dc7baa152}, !- Schedule Ruleset Name
  1,                                      !- Rule Order
  {3b152e01-5457-4dc6-863a-8e4b9a245e4f}, !- Day Schedule Name
  Yes,                                    !- Apply Sunday
  ,                                       !- Apply Monday
  ,                                       !- Apply Tuesday
  ,                                       !- Apply Wednesday
  ,                                       !- Apply Thursday
  ,                                       !- Apply Friday
  ,                                       !- Apply Saturday
  ,                                       !- Apply Holiday
  DateRange,                              !- Date Specification Type
  1,                                      !- Start Month
  1,                                      !- Start Day
  12,                                     !- End Month
  31;                                     !- End Day

OS:Schedule:Day,
  {3b152e01-5457-4dc6-863a-8e4b9a245e4f}, !- Handle
  0600|2200|SuperMarket|default|occ |1/1-12/31|Sun, !- Name
  {278f55ae-fe97-42a2-b0a9-b00b211a63f8}, !- Schedule Type Limits Name
  ,                                       !- Interpolate to Timestep
  6,                                      !- Hour 1
  0,                                      !- Minute 1
  0,                                      !- Value Until Time 1
  10,                                     !- Hour 2
  0,                                      !- Minute 2
  0.1,                                    !- Value Until Time 2
  12,                                     !- Hour 3
  0,                                      !- Minute 3
  0.2,                                    !- Value Until Time 3
  17,                                     !- Hour 4
  0,                                      !- Minute 4
  0.4,                                    !- Value Until Time 4
  18,                                     !- Hour 5
  0,                                      !- Minute 5
  0.2,                                    !- Value Until Time 5
  22,                                     !- Hour 6
  0,                                      !- Minute 6
  0.1,                                    !- Value Until Time 6
  24,                                     !- Hour 7
  0,                                      !- Minute 7
  0;                                      !- Value Until Time 7

OS:Schedule:Ruleset,
  {fef4ea3f-def3-4147-b873-a0d630dd509d}, !- Handle
  0600|2200|SuperMarket|default|swh_target_temp, !- Name
  {75a1d60f-72a2-4ba4-af80-f2918e998989}, !- Schedule Type Limits Name
  {88e2ac8c-b597-4644-b4aa-07554c4ca799}, !- Default Day Schedule Name
  {d977d2d4-b1fc-4ff1-82b0-5ade4d5a1973}, !- Summer Design Day Schedule Name
  {96e76736-cb8f-4f97-a4c7-f56f795c6ddf}; !- Winter Design Day Schedule Name

OS:ScheduleTypeLimits,
  {75a1d60f-72a2-4ba4-af80-f2918e998989}, !- Handle
  Temperature Schedule Type Limits,       !- Name
  ,                                       !- Lower Limit Value {BasedOnField A4}
  ,                                       !- Upper Limit Value {BasedOnField A4}
  Continuous,                             !- Numeric Type
  Temperature;                            !- Unit Type

OS:Schedule:Day,
  {88e2ac8c-b597-4644-b4aa-07554c4ca799}, !- Handle
  0600|2200|SuperMarket|default|swh_target_temp |default, !- Name
  {75a1d60f-72a2-4ba4-af80-f2918e998989}, !- Schedule Type Limits Name
  ,                                       !- Interpolate to Timestep
  24,                                     !- Hour 1
  0,                                      !- Minute 1
  60.0000000000001;                       !- Value Until Time 1

OS:Schedule:Day,
  {d977d2d4-b1fc-4ff1-82b0-5ade4d5a1973}, !- Handle
  0600|2200|SuperMarket|default|swh_target_temp Summer Design Day, !- Name
  {75a1d60f-72a2-4ba4-af80-f2918e998989}, !- Schedule Type Limits Name
  ,                                       !- Interpolate to Timestep
  24,                                     !- Hour 1
  0,                                      !- Minute 1
  60.0000000000001;                       !- Value Until Time 1

OS:Schedule:Day,
  {96e76736-cb8f-4f97-a4c7-f56f795c6ddf}, !- Handle
  0600|2200|SuperMarket|default|swh_target_temp Winter Design Day, !- Name
  {75a1d60f-72a2-4ba4-af80-f2918e998989}, !- Schedule Type Limits Name
  ,                                       !- Interpolate to Timestep
  24,                                     !- Hour 1
  0,                                      !- Minute 1
  60.0000000000001;                       !- Value Until Time 1

OS:Schedule:Ruleset,
  {3d8d6e40-f987-415b-811f-b34968ee1bb5}, !- Handle
  0600|2200|SuperMarket|default|htg_setpoint, !- Name
  {6794a53c-f80e-4c64-8a52-3cef5950ae9e}, !- Schedule Type Limits Name
  {324b7cfd-59c0-494c-b13f-3bb5d1161f48}, !- Default Day Schedule Name
  {00762851-f2fc-4192-bb4f-877b714d937b}, !- Summer Design Day Schedule Name
  {16669258-fd52-4959-aa5c-67a483183216}; !- Winter Design Day Schedule Name

OS:ScheduleTypeLimits,
  {6794a53c-f80e-4c64-8a52-3cef5950ae9e}, !- Handle
  Thermostat Heating Setpoint Schedule Type Limits, !- Name
  0,                                      !- Lower Limit Value {BasedOnField A4}
  100,                                    !- Upper Limit Value {BasedOnField A4}
  Continuous,                             !- Numeric Type
  Temperature;                            !- Unit Type

OS:Schedule:Day,
  {324b7cfd-59c0-494c-b13f-3bb5d1161f48}, !- Handle
  0600|2200|SuperMarket|default|htg_setpoint |default, !- Name
  {6794a53c-f80e-4c64-8a52-3cef5950ae9e}, !- Schedule Type Limits Name
  ,                                       !- Interpolate to Timestep
  24,                                     !- Hour 1
  0,                                      !- Minute 1
  21.0000000000001;                       !- Value Until Time 1

OS:Schedule:Day,
  {00762851-f2fc-4192-bb4f-877b714d937b}, !- Handle
  0600|2200|SuperMarket|default|htg_setpoint Summer Design Day, !- Name
  {6794a53c-f80e-4c64-8a52-3cef5950ae9e}, !- Schedule Type Limits Name
  ,                                       !- Interpolate to Timestep
  24,                                     !- Hour 1
  0,                                      !- Minute 1
  21.0000000000001;                       !- Value Until Time 1

OS:Schedule:Day,
  {16669258-fd52-4959-aa5c-67a483183216}, !- Handle
  0600|2200|SuperMarket|default|htg_setpoint Winter Design Day, !- Name
  {6794a53c-f80e-4c64-8a52-3cef5950ae9e}, !- Schedule Type Limits Name
  ,                                       !- Interpolate to Timestep
  24,                                     !- Hour 1
  0,                                      !- Minute 1
  21.0000000000001;                       !- Value Until Time 1

OS:Schedule:Ruleset,
  {3a32925d-999f-44e1-880e-85e5d61ccfa4}, !- Handle
  0600|2200|SuperMarket|default|swh,      !- Name
  {6e382321-ee6c-43ad-bfbc-7b15127a5ecc}, !- Schedule Type Limits Name
  {8072b043-51f7-4702-81d8-69d45bf7abd1}, !- Default Day Schedule Name
  {bec8b74a-21d8-454d-85ea-794114babbc9}, !- Summer Design Day Schedule Name
  {d145bc2f-e8de-4c78-9413-cb75485b58a4}; !- Winter Design Day Schedule Name

OS:ScheduleTypeLimits,
  {6e382321-ee6c-43ad-bfbc-7b15127a5ecc}, !- Handle