
OS:Version,
  {9203aa6a-77cb-4da6-9f65-98fc3ce75b30}, !- Handle
  1.5.5;                                  !- Version Identifier

OS:ClimateZones,
  {135edfab-17e7-40db-a436-27d385a8cd6d}, !- Handle
  ,                                       !- Active Institution
  ,                                       !- Active Year
  ASHRAE,                                 !- Climate Zone Institution Name 1
  ANSI/ASHRAE Standard 169,               !- Climate Zone Document Name 1
  2006,                                   !- Climate Zone Document Year 1
  ,                                       !- Climate Zone Value 1
  CEC,                                    !- Climate Zone Institution Name 2
  California Climate Zone Descriptions,   !- Climate Zone Document Name 2
  1995,                                   !- Climate Zone Document Year 2
  ;                                       !- Climate Zone Value 2

OS:YearDescription,
  {513d8dda-86cb-442a-b01c-1f7f0e0ac70e}; !- Handle

OS:RadianceParameters,
  {270a96f1-3c86-4b75-a667-cdf22790e2c8}, !- Handle
  1,                                      !- Accumulated Rays per Record
  0,                                      !- Direct Threshold
  1,                                      !- Direct Certainty
  1,                                      !- Direct Jitter
  1,                                      !- Direct Pretest
  6,                                      !- Ambient Bounces VMX
  2,                                      !- Ambient Bounces DMX
  4050,                                   !- Ambient Divisions VMX
  512,                                    !- Ambient Divisions DMX
  256,                                    !- Ambient Supersamples
  0.001,                                  !- Limit Weight VMX
  0.001,                                  !- Limit Weight DMX
  500,                                    !- Klems Sampling Density
  146;                                    !- Sky Discretization Resolution

OS:SimulationControl,
  {2c487a4c-bac9-4ac5-b669-1e49d9da7c2b}, !- Handle
  ,                                       !- Do Zone Sizing Calculation
  ,                                       !- Do System Sizing Calculation
  ,                                       !- Do Plant Sizing Calculation
  No,                                     !- Run Simulation for Sizing Periods
  ,                                       !- Run Simulation for Weather File Run Periods
  0.04,                                   !- Loads Convergence Tolerance Value
  ,                                       !- Temperature Convergence Tolerance Value {deltaC}
  ,                                       !- Solar Distribution
  ,                                       !- Maximum Number of Warmup Days
  2;                                      !- Minimum Number of Warmup Days

OS:Sizing:Parameters,
  {dde5af6f-7923-4600-a28a-7556673a0266}, !- Handle
  1.25,                                   !- Heating Sizing Factor
  1.15;                                   !- Cooling Sizing Factor

OS:ProgramControl,
  {05027a99-f2b3-4aeb-afc6-1425fbb4371d}; !- Handle

OS:Timestep,
  {4ebc9f1e-4707-402e-9844-67eb1ffbd522}, !- Handle
  2;                                      !- Number of Timesteps per Hour

OS:OutputControl:ReportingTolerances,
  {65797aa2-06a9-45fe-b69d-bc6e060399d3}; !- Handle

OS:ConvergenceLimits,
  {9fc11aba-8822-4f3d-970c-46391ba4040d}; !- Handle

OS:ShadowCalculation,
  {ca758bea-4416-4626-9bba-3d8795c79bd6}, !- Handle
  7,                                      !- Calculation Frequency
  15000;                                  !- Maximum Figures in Shadow Overlap Calculations

OS:SurfaceConvectionAlgorithm:Inside,
  {aaabfc36-718a-4ab0-b622-f186ebb45230}, !- Handle
  TARP;                                   !- Algorithm

OS:SurfaceConvectionAlgorithm:Outside,
  {9a0a9f6f-4bbd-4b12-a121-9492a1fcd7d6}, !- Handle
  DOE-2;                                  !- Algorithm

OS:HeatBalanceAlgorithm,
  {9d93e563-e1e0-46d7-9e39-d1c8aceb7212}, !- Handle
  ConductionTransferFunction,             !- Algorithm
  200;                                    !- Surface Temperature Upper Limit {F}

OS:ZoneAirHeatBalanceAlgorithm,
  {8520d93e-310f-4696-9bcd-36228bfdd743}, !- Handle
  AnalyticalSolution;                     !- Algorithm

OS:ZoneAirContaminantBalance,
  {eb5fc3ae-fb22-4160-8fcb-3e3b22b000d3}; !- Handle

OS:ZoneCapacitanceMultiplier:ResearchSpecial,
  {4020ce4f-5a7a-4849-8028-8305d7b751b1}, !- Handle
  ,                                       !- Temperature Capacity Multiplier
  ,                                       !- Humidity Capacity Multiplier
  ;                                       !- Carbon Dioxide Capacity Multiplier

OS:RunPeriod,
  {28df894d-6af9-4fb8-8f56-df1753344aa3}, !- Handle
  Run Period 1,                           !- Name
  1,                                      !- Begin Month
  1,                                      !- Begin Day of Month
  12,                                     !- End Month
  31,                                     !- End Day of Month
  ,                                       !- Use Weather File Holidays and Special Days
  ,                                       !- Use Weather File Daylight Saving Period
  ,                                       !- Apply Weekend Holiday Rule
  ,                                       !- Use Weather File Rain Indicators
  ,                                       !- Use Weather File Snow Indicators
  ;                                       !- Number of Times Runperiod to be Repeated

OS:Building,
  {bf305633-c5a1-4881-9edf-ca5e1a8e1274}, !- Handle
  Building 1,                             !- Name
  ,                                       !- Building Sector Type
  ,                                       !- North Axis {deg}
  ,                                       !- Nominal Floor to Floor Height {m}
  ,                                       !- Space Type Name
  ,                                       !- Default Construction Set Name
  {645750bb-90ec-4718-a313-60ef22bbbfb3}, !- Default Schedule Set Name
  ,                                       !- Standards Number of Stories
  ,                                       !- Standards Number of Above Ground Stories
  Warehouse;                              !- Standards Building Type

OS:LifeCycleCost:Parameters,
  {231cf8a0-f0e7-4251-a99f-11f0d464e661}, !- Handle
  FEMP,                                   !- Analysis Type
  ,                                       !- Discounting Convention
  ,                                       !- Inflation Approach
  ,                                       !- Real Discount Rate
  ,                                       !- Nominal Discount Rate
  ,                                       !- Inflation
  ,                                       !- Base Date Month
  ,                                       !- Base Date Year
  ,                                       !- Service Date Month
  ,                                       !- Service Date Year
  ,                                       !- Length of Study Period in Years
  ,                                       !- Tax Rate
  ,                                       !- Depreciation Method
  Yes;                                    !- Use NIST Fuel Escalation Rates

OS:Facility,
  {3ba8e45b-b833-44eb-a723-ea6c3946dc96}; !- Handle

OS:SpaceType,
  {a059941e-9b85-412e-9146-d694c88bb5e3}, !- Handle
  Warehouse|BlendA|DOE Ref 1980-2004|ASHRAE 169-2006-5A, !- Name
  {62468d38-1d6d-4f5e-aaec-cb125af0d00d}, !- Default Construction Set Name
  ,                                       !- Default Schedule Set Name
  {71da7ea2-dded-44ce-ad80-925271de8a9d}, !- Group Rendering Name
  {220f5626-f48c-45b0-88c1-1674bfe64f6c}, !- Design Specification Outdoor Air Object Name
  Warehouse,                              !- Standards Building Type
  BlendA;                                 !- Standards Space Type

OS:Rendering:Color,
  {71da7ea2-dded-44ce-ad80-925271de8a9d}, !- Handle
  Rendering Color 1,                      !- Name
  41,                                     !- Rendering Red Value
  31,                                     !- Rendering Green Value
  169;                                    !- Rendering Blue Value

OS:SpaceType,
  {1c2f239c-8965-4c7c-9e2d-f94bcd8ed2a0}, !- Handle
  Warehouse|Office|DOE Ref 1980-2004|ASHRAE 169-2006-5A, !- Name
  {62468d38-1d6d-4f5e-aaec-cb125af0d00d}, !- Default Construction Set Name
  {4f332bef-c539-4bc2-9fb0-68ea483865ac}, !- Default Schedule Set Name
  {1b618370-0f4e-4834-b68c-ccfe30c5db48}, !- Group Rendering Name
  {146628c0-7c31-40bc-9bc6-52d4172ab565}, !- Design Specification Outdoor Air Object Name
  Warehouse,                              !- Standards Building Type
  Office;                                 !- Standards Space Type

OS:Rendering:Color,
  {1b618370-0f4e-4834-b68c-ccfe30c5db48}, !- Handle
  Rendering Color 2,                      !- Name
  120,                                    !- Rendering Red Value
  230,                                    !- Rendering Green Value
  199;                                    !- Rendering Blue Value

OS:Schedule:Ruleset,
  {f0c7048d-0764-4cec-8606-a1702bb25652}, !- Handle
  0700|1700|Warehouse|default|hoo,        !- Name
  {f41f0856-1590-4e00-866e-fec8b1a8f837}, !- Schedule Type Limits Name
  {43b90533-0704-419b-98b8-9d340d9cac7a}, !- Default Day Schedule Name
  {f3275448-8eeb-4370-b46a-49b1ff19d57e}, !- Summer Design Day Schedule Name
  {7d19d3db-845e-4dec-904d-81ddd95ba373}; !- Winter Design Day Schedule Name

OS:Schedule:Day,
  {43b90533-0704-419b-98b8-9d340d9cac7a}, !- Handle
  0700|1700|Warehouse|default|hoo Schedule Week Day, !- Name
  {f41f0856-1590-4e00-866e-fec8b1a8f837}, !- Schedule Type Limits Name
  ,                                       !- Interpolate to Timestep
  7,                                      !- Hour 1
  0,                                      !- Minute 1
  0,                                      !- Value Until Time 1
  17,                                     !- Hour 2
  0,                                      !- Minute 2
  1,                                      !- Value Until Time 2
  24,                                     !- Hour 3
  0,                                      !- Minute 3
  0;                                      !- Value Until Time 3

OS:Schedule:Day,
  {4ea633b1-68e5-47e8-be12-d3ee7cca8884}, !- Handle
  Schedule Day 2,                         !- Name
  ,                                       !- Schedule Type Limits Name
  ,                                       !- Interpolate to Timestep
  24,                                     !- Hour 1
  0,                                      !- Minute 1
  0;                                      !- Value Until Time 1

OS:Schedule:Day,
  {7d19d3db-845e-4dec-904d-81ddd95ba373}, !- Handle
  0700|1700|Warehouse|default|hoo Winter Design Day, !- Name
  {f41f0856-1590-4e00-866e-fec8b1a8f837}, !- Schedule Type Limits Name
  ,                                       !- Interpolate to Timestep
  24,                                     !- Hour 1
  0,                                      !- Minute 1
  0;                                      !- Value Until Time 1

OS:Schedule:Day,
  {99d6c3d8-6394-4083-86fc-6cbfa8601bb0}, !- Handle
  Schedule Day 3,                         !- Name
  ,                                       !- Schedule Type Limits Name
  ,                                       !- Interpolate to Timestep
  24,                                     !- Hour 1
  0,                                      !- Minute 1
  0;                                      !- Value Until Time 1

OS:Schedule:Day,
  {f3275448-8eeb-4370-b46a-49b1ff19d57e}, !- Handle
  0700|1700|Warehouse|default|hoo Summer Design Day, !- Name
  {f41f0856-1590-4e00-866e-fec8b1a8f837}, !- Schedule Type Limits Name
  ,                                       !- Interpolate to Timestep
  24,                                     !- Hour 1
  0,                                      !- Minute 1
  1;                                      !- Value Until Time 1

OS:DefaultScheduleSet,
  {645750bb-90ec-4718-a313-60ef22bbbfb3}, !- Handle
  Building Hours of Operation,            !- Name
  {f0c7048d-0764-4cec-8606-a1702bb25652}, !- Hours of Operation Schedule Name
  ,                                       !- Number of People Schedule Name
  ,                                       !- People Activity Level Schedule Name
  ,                                       !- Lighting Schedule Name
  ,                                       !- Electric Equipment Schedule Name
  ,                                       !- Gas Equipment Schedule Name
  ,                                       !- Hot Water Equipment Schedule Name
  ,                                       !- Infiltration Schedule Name
  ,                                       !- Steam Equipment Schedule Name
  ;                                       !- Other Equipment Schedule Name

OS:ScheduleTypeLimits,
  {f41f0856-1590-4e00-866e-fec8b1a8f837}, !- Handle
  OnOff,                                  !- Name
  0,                                      !- Lower Limit Value {BasedOnField A4}
  1,                                      !- Upper Limit Value {BasedOnField A4}
  Discrete,                               !- Numeric Type
  Availability;                           !- Unit Type

OS:Schedule:Ruleset,
  {259e5183-15f8-420d-8c2a-efe5cb065498}, !- Handle
  0700|1700|Warehouse|default|occ,        !- Name
  {4f3aff27-a533-4aa0-a144-79c47141afc3}, !- Schedule Type Limits Name
  {f38b0053-3910-4731-9979-3c40b3b12be9}, !- Default Day Schedule Name
  {05416b7d-bfe5-436e-8242-02a439a7b1fa}, !- Summer Design Day Schedule Name
  {fe2f4817-1fe0-412b-a1aa-ae581cf59b34}; !- Winter Design Day Schedule Name

OS:ScheduleTypeLimits,
  {4f3aff27-a533-4aa0-a144-79c47141afc3}, !- Handle
  Occupancy Schedule Type Limits,         !- Name
  0,                                      !- Lower Limit Value {BasedOnField A4}
  1,                                      !- Upper Limit Value {BasedOnField A4}
  Continuous,                             !- Numeric Type
  Dimensionless;                          !- Unit Type

OS:Schedule:Day,
  {f38b0053-3910-4731-9979-3c40b3b12be9}, !- Handle
  0700|1700|Warehouse|default|occ |default, !- Name
  {4f3aff27-a533-4aa0-a144-79c47141afc3}, !- Schedule Type Limits Name
  ,                                       !- Interpolate to Timestep
  7,                                      !- Hour 1
  0,                                      !- Minute 1
  0,                                      !- Value Until Time 1
  8,                                      !- Hour 2
  0,                                      !- Minute 2
  0.15,                                   !- Value Until Time 2
  9,                                      !- Hour 3
  0,                                      !- Minute 3
  0.7,                                    !- Value Until Time 3
  12,                                     !- Hour 4
  0,                                      !- Minute 4
  0.9,                                    !- Value Until Time 4
  13,                                     !- Hour 5
  0,                                      !- Minute 5
  0.5,                                    !- Value Until Time 5
  16,                                     !- Hour 6
  0,                                      !- Minute 6
  0.85,                                   !- Value Until Time 6
  17,                                     !- Hour 7
  0,                                      !- Minute 7
  0.2,                                    !- Value Until Time 7
  24,                                     !- Hour 8
  0,                                      !- Minute 8
  0;                                      !- Value Until Time 8

OS:Schedule:Day,
  {05416b7d-bfe5-436e-8242-02a439a7b1fa}, !- Handle
  0700|1700|Warehouse|default|occ Summer Design Day, !- Name
  {4f3aff27-a533-4aa0-a144-79c47141afc3}, !- Schedule Type Limits Name
  ,                                       !- Interpolate to Timestep
  7,                                      !- Hour 1
  0,                                      !- Minute 1
  0,                                      !- Value Until Time 1
  8,                                      !- Hour 2
  0,                                      !- Minute 2
  0.15,                                   !- Value Until Time 2
  16,                                     !- Hour 3
  0,                                      !- Minute 3
  1,                                      !- Value Until Time 3
  17,                                     !- Hour 4
  0,                                      !- Minute 4
  0.2,                                    !- Value Until Time 4
  24,                                     !- Hour 5
  0,                                      !- Minute 5
  0;                                      !- Value Until Time 5

OS:Schedule:Day,
  {fe2f4817-1fe0-412b-a1aa-ae581cf59b34}, !- Handle
  0700|1700|Warehouse|default|occ Winter Design Day, !- Name
  {4f3aff27-a533-4aa0-a144-79c47141afc3}, !- Schedule Type Limits Name
  ,                                       !- Interpolate to Timestep
  24,                                     !- Hour 1
  0,                                      !- Minute 1
  0;                                      !- Value Until Time 1

OS:Schedule:Rule,
  {2ce3e24b-5824-41bd-a7b4-7a8be0ded8e6}, !- Handle
  0700|1700|Warehouse|default|occ |1/1-12/31|Sat Rule, !- Name
  {259e5183-15f8-420d-8c2a-efe5cb065498}, !- Schedule Ruleset Name
  0,                                      !- Rule Order
  {e7424bfa-2b02-41e9-b3a0-97a1d78bac63}, !- Day Schedule Name
  ,                                       !- Apply Sunday
  ,                                       !- Apply Monday
  ,                                       !- Apply Tuesday
  ,                                       !- Apply Wednesday
  ,                                       !- Apply Thursday
  ,                                       !- Apply Friday
  Yes,                                    !- Apply Saturday
  ,                                       !- Apply Holiday
  DateRange,                              !- Date Specification Type
  1,                                      !- Start Month
  1,                                      !- Start Day
  12,                                     !- End Month
  31;                                     !- End Day

OS:Schedule:Day,
  {e7424bfa-2b02-41e9-b3a0-97a1d78bac63}, !- Handle
  0700|1700|Warehouse|default|occ |1/1-12/31|Sat, !- Name
  {4f3aff27-a533-4aa0-a144-79c47141afc3}, !- Schedule Type Limits Name
  ,                                       !- Interpolate to Timestep
  8,                                      !- Hour 1
  0,                                      !- Minute 1
  0,                                      !- Value Until Time 1
  12,                                     !- Hour 2
  0,                                      !- Minute 2
  0.2,                                    !- Value Until Time 2
  16,                                     !- Hour 3
  0,                                      !- Minute 3
  0.1,                                    !- Value Until Time 3
  24,                                     !- Hour 4
  0,                                      !- Minute 4
  0;                                      !- Value Until Time 4

OS:Schedule:Rule,
  {0194ef30-0ea7-4faf-8e7f-64bd5649d68a}, !- Handle
  0700|1700|Warehouse|default|occ |1/1-12/31|Sun Rule, !- Name
  {259e5183-15f8-420d-8c2a-efe5cb065498}, !- Schedule Ruleset Name
  1,                                      !- Rule Order
  {f7120a38-569a-45e0-81c3-55bc45b615fe}, !- Day Schedule Name
  Yes,                                    !- Apply Sunday
  ,                                       !- Apply Monday
  ,                                       !- Apply Tuesday
  ,                                       !- Apply Wednesday
  ,                                       !- Apply Thursday
  ,                                       !- Apply Friday
  ,                                       !- Apply Saturday
  ,                                       !- Apply Holiday
  DateRange,                              !- Date Specification Type
  1,                                      !- Start Month
  1,                                      !- Start Day
  12,                                     !- End Month
  31;                                     !- End Day

OS:Schedule:Day,
  {f7120a38-569a-45e0-81c3-55bc45b615fe}, !- Handle
  0700|1700|Warehouse|default|occ |1/1-12/31|Sun, !- Name
  {4f3aff27-a533-4aa0-a144-79c47141afc3}, !- Schedule Type Limits Name
  ,                                       !- Interpolate to Timestep
  24,                                     !- Hour 1
  0,                                      !- Minute 1
  0;                                      !- Value Until Time 1

OS:Schedule:Ruleset,
  {4b7c1d3a-c58f-4be9-8baa-10111dc43f12}, !- Handle
  0700|1700|Warehouse|default|lighting,   !- Name
  {2628c498-48a9-4346-9829-951262b4fd17}, !- Schedule Type Limits Name
  {f5ccaa3e-9521-4872-819e-b5834fff2552}, !- Default Day Schedule Name
  {9289f2fd-a960-412f-b2f0-dcbe7d3a524a}, !- Summer Design Day Schedule Name
  {5d6377b0-6aca-4e7d-aa75-0c0d31ca67ba}; !- Winter Design Day Schedule Name

OS:ScheduleTypeLimits,
  {2628c498-48a9-4346-9829-951262b4fd17}, !- Handle
  Lights Schedule Type Limits,            !- Name
  0,                                      !- Lower Limit Value {BasedOnField A4}
  1,                                      !- Upper Limit Value {BasedOnField A4}
  Continuous,                             !- Numeric Type
  Dimensionless;                          !- Unit Type

OS:Schedule:Day,
  {f5ccaa3e-9521-4872-819e-b5834fff2552}, !- Handle
  0700|1700|Warehouse|default|lighting |default, !- Name
  {2628c498-48a9-4346-9829-951262b4fd17}, !- Schedule Type Limits Name
  ,                                       !- Interpolate to Timestep
  7,                                      !- Hour 1
  0,                                      !- Minute 1
  0.1,                                    !- Value Until Time 1
  8,                                      !- Hour 2
  0,                                      !- Minute 2
  0.4,                                    !- Value Until Time 2
  9,                                      !- Hour 3
  0,                                      !- Minute 3
  0.7,                                    !- Value Until Time 3
  12,                                     !- Hour 4
  0,                                      !- Minute 4
  0.9,                                    !- Value Until Time 4
  13,                                     !- Hour 5
  0,                                      !- Minute 5
  0.8,                                    !- Value Until Time 5
  17,                                     !- Hour 6
  0,                                      !- Minute 6
  0.9,                                    !- Value Until Time 6
  18,                                     !- Hour 7
  0,                                      !- Minute 7
  0.3,                                    !- Value Until Time 7
  24,                                     !- Hour 8
  0,                                      !- Minute 8
  0.1;                                    !- Value Until Time 8

OS:Schedule:Day,
  {9289f2fd-a960-412f-b2f0-dcbe7d3a524a}, !- Handle
  0700|1700|Warehouse|default|lighting Summer Design Day, !- Name
  {2628c498-48a9-4346-9829-951262b4fd17}, !- Schedule Type Limits Name
  ,                                       !- Interpolate to Timestep
  7,                                      !- Hour 1
  0,                                      !- Minute 1
  0.1,                                    !- Value Until Time 1
  18,                                     !- Hour 2
  0,                                      !- Minute 2
  1,                                      !- Value Until Time 2
  24,                                     !- Hour 3
  0,                                      !- Minute 3
  0.1;                                    !- Value Until Time 3

OS:Schedule:Day,
  {5d6377b0-6aca-4e7d-aa75-0c0d31ca67ba}, !- Handle
  0700|1700|Warehouse|default|lighting Winter Design Day, !- Name
  {2628c498-48a9-4346-9829-951262b4fd17}, !- Schedule Type Limits Name
  ,                                       !- Interpolate to Timestep
  24,                                     !- Hour 1
  0,                                      !- Minute 1
  0.1;                                    !- Value Until Time 1

OS:Schedule:Rule,
  {f457bead-d2ef-4ded-8e27-8687277a4529}, !- Handle
  0700|1700|Warehouse|default|lighting |1/1-12/31|Sat Rule, !- Name
  {4b7c1d3a-c58f-4be9-8baa-10111dc43f12}, !- Schedule Ruleset Name
  0,                                      !- Rule Order
  {5912b352-bcc4-46bc-95d1-dfa4e953b48f}, !- Day Schedule Name
  ,                                       !- Apply Sunday
  ,                                       !- Apply Monday
  ,                                       !- Apply Tuesday
  ,                                       !- Apply Wednesday
  ,                                       !- Apply Thursday
  ,                                       !- Apply Friday
  Yes,                                    !- Apply Saturday
  ,                                       !- Apply Holiday
  DateRange,                              !- Date Specification Type
  1,                                      !- Start Month
  1,                                      !- Start Day
  12,                                     !- End Month
  31;                                     !- End Day

OS:Schedule:Day,
  {5912b352-bcc4-46bc-95d1-dfa4e953b48f}, !- Handle
  0700|1700|Warehouse|default|lighting |1/1-12/31|Sat, !- Name
  {2628c498-48a9-4346-9829-951262b4fd17}, !- Schedule Type Limits Name
  ,                                       !- Interpolate to Timestep
  9,                                      !- Hour 1
  0,                                      !- Minute 1
  0.1,                                    !- Value Until Time 1
  12,                                     !- Hour 2
  0,                                      !- Minute 2
  0.24,                                   !- Value Until Time 2
  24,                                     !- Hour 3
  0,                                      !- Minute 3
  0.1;                                    !- Value Until Time 3

OS:Schedule:Rule,
  {36913cbd-fbc4-4f71-b318-d4eb6983166b}, !- Handle
  0700|1700|Warehouse|default|lighting |1/1-12/31|Sun Rule, !- Name
  {4b7c1d3a-c58f-4be9-8baa-10111dc43f12}, !- Schedule Ruleset Name
  1,                                      !- Rule Order
  {2cd3209a-3940-46e8-b990-be1adaffe46e}, !- Day Schedule Name
  Yes,                                    !- Apply Sunday
  ,                                       !- Apply Monday
  ,                                       !- Apply Tuesday
  ,                                       !- Apply Wednesday
  ,                                       !- Apply Thursday
  ,                                       !- Apply Friday
  ,                                       !- Apply Saturday
  ,                                       !- Apply Holiday
  DateRange,                              !- Date Specification Type
  1,                                      !- Start Month
  1,                                      !- Start Day
  12,                                     !- End Month
  31;                                     !- End Day

OS:Schedule:Day,
  {2cd3209a-3940-46e8-b990-be1adaffe46e}, !- Handle
  0700|1700|Warehouse|default|lighting |1/1-12/31|Sun, !- Name
  {2628c498-48a9-4346-9829-951262b4fd17}, !- Schedule Type Limits Name
  ,                                       !- Interpolate to Timestep
  24,                                     !- Hour 1
  0,                                      !- Minute 1
  0.1;                                    !- Value Until Time 1

OS:Schedule:Ruleset,
  {9f050bac-87f5-4a05-bb7b-2e5f22858dbd}, !- Handle
  0700|1700|Warehouse|default|thermal_ctrl, !- Name
  {889e8a62-098b-4584-a1c1-409a58011830}, !- Schedule Type Limits Name
  {acf3c8f9-ff27-47d9-8754-db58b798b179}, !- Default Day Schedule Name
  {6a884a04-a7ee-4a93-b0f3-10d3c7c7b17f}, !- Summer Design Day Schedule Name
  {a3c9e848-eda6-4f02-bde5-532359e45da1}; !- Winter Design Day Schedule Name

OS:ScheduleTypeLimits,
  {889e8a62-098b-4584-a1c1-409a58011830}, !- Handle
  Dimensionless Schedule Type Limits,     !- Name
  ,                                       !- Lower Limit Value {BasedOnField A4}
  ,                                       !- Upper Limit Value {BasedOnField A4}
  Continuous,                             !- Numeric Type
  Dimensionless;                          !- Unit Type

OS:Schedule:Day,
  {acf3c8f9-ff27-47d9-8754-db58b798b179}, !- Handle
  0700|1700|Warehouse|default|thermal_ctrl |default, !- Name
  {889e8a62-098b-4584-a1c1-409a58011830}, !- Schedule Type Limits Name
  ,                                       !- Interpolate to Timestep
  24,                                     !- Hour 1
  0,                                      !- Minute 1
  4;                                      !- Value Until Time 1

OS:Schedule:Day,
  {6a884a04-a7ee-4a93-b0f3-10d3c7c7b17f}, !- Handle
  0700|1700|Warehouse|default|thermal_ctrl Summer Design Day, !- Name
  {889e8a62-098b-4584-a1c1-409a58011830}, !- Schedule Type Limits Name
  ,                                       !- Interpolate to Timestep
  24,                                     !- Hour 1
  0,                                      !- Minute 1
  4;                                      !- Value Until Time 1

OS:Schedule:Day,
  {a3c9e848-eda6-4f02-bde5-532359e45da1}, !- Handle
  0700|1700|Warehouse|default|thermal_ctrl Winter Design Day, !- Name
  {889e8a62-098b-4584-a1c1-409a58011830}, !- Schedule Type Limits Name
  ,                                       !- Interpolate to Timestep