
OS:Version,
  {39aa6061-f33a-4657-9a56-6c745e44a3a2}, !- Handle
  1.6.0;                                  !- Version Identifier

OS:ClimateZones,
  {135edfab-17e7-40db-a436-27d385a8cd6d}, !- Handle
  ,                                       !- Active Institution
  ,                                       !- Active Year
  ASHRAE,                                 !- Climate Zone Institution Name 1
  ANSI/ASHRAE Standard 169,               !- Climate Zone Document Name 1
  2006,                                   !- Climate Zone Document Year 1
  ,                                       !- Climate Zone Value 1
  CEC,                                    !- Climate Zone Institution Name 2
  California Climate Zone Descriptions,   !- Climate Zone Document Name 2
  1995,                                   !- Climate Zone Document Year 2
  ;                                       !- Climate Zone Value 2

OS:YearDescription,
  {513d8dda-86cb-442a-b01c-1f7f0e0ac70e}; !- Handle

OS:RadianceParameters,
  {270a96f1-3c86-4b75-a667-cdf22790e2c8}, !- Handle
  1,                                      !- Accumulated Rays per Record
  0,                                      !- Direct Threshold
  1,                                      !- Direct Certainty
  1,                                      !- Direct Jitter
  1,                                      !- Direct Pretest
  6,                                      !- Ambient Bounces VMX
  2,                                      !- Ambient Bounces DMX
  4050,                                   !- Ambient Divisions VMX
  512,                                    !- Ambient Divisions DMX
  256,                                    !- Ambient Supersamples
  0.001,                                  !- Limit Weight VMX
  0.001,                                  !- Limit Weight DMX
  500,                                    !- Klems Sampling Density
  146;                                    !- Sky Discretization Resolution

OS:SimulationControl,
  {2c487a4c-bac9-4ac5-b669-1e49d9da7c2b}, !- Handle
  ,                                       !- Do Zone Sizing Calculation
  ,                                       !- Do System Sizing Calculation
  ,                                       !- Do Plant Sizing Calculation
  No,                                     !- Run Simulation for Sizing Periods
  ,                                       !- Run Simulation for Weather File Run Periods
  0.04,                                   !- Loads Convergence Tolerance Value
  ,                                       !- Temperature Convergence Tolerance Value {deltaC}
  ,                                       !- Solar Distribution
  ,                                       !- Maximum Number of Warmup Days
  2;                                      !- Minimum Number of Warmup Days

OS:Sizing:Parameters,
  {dde5af6f-7923-4600-a28a-7556673a0266}, !- Handle
  1.25,                                   !- Heating Sizing Factor
  1.15;                                   !- Cooling Sizing Factor

OS:ProgramControl,
  {05027a99-f2b3-4aeb-afc6-1425fbb4371d}; !- Handle

OS:Timestep,
  {4ebc9f1e-4707-402e-9844-67eb1ffbd522}, !- Handle
  2;                                      !- Number of Timesteps per Hour

OS:OutputControl:ReportingTolerances,
  {65797aa2-06a9-45fe-b69d-bc6e060399d3}; !- Handle

OS:ConvergenceLimits,
  {9fc11aba-8822-4f3d-970c-46391ba4040d}; !- Handle

OS:ShadowCalculation,
  {ca758bea-4416-4626-9bba-3d8795c79bd6}, !- Handle
  7,                                      !- Calculation Frequency
  15000;                                  !- Maximum Figures in Shadow Overlap Calculations

OS:SurfaceConvectionAlgorithm:Inside,
  {aaabfc36-718a-4ab0-b622-f186ebb45230}, !- Handle
  TARP;                                   !- Algorithm

OS:SurfaceConvectionAlgorithm:Outside,
  {9a0a9f6f-4bbd-4b12-a121-9492a1fcd7d6}, !- Handle
  DOE-2;                                  !- Algorithm

OS:HeatBalanceAlgorithm,
  {9d93e563-e1e0-46d7-9e39-d1c8aceb7212}, !- Handle
  ConductionTransferFunction,             !- Algorithm
  200;                                    !- Surface Temperature Upper Limit {F}

OS:ZoneAirHeatBalanceAlgorithm,
  {8520d93e-310f-4696-9bcd-36228bfdd743}, !- Handle
  AnalyticalSolution;                     !- Algorithm

OS:ZoneAirContaminantBalance,
  {eb5fc3ae-fb22-4160-8fcb-3e3b22b000d3}; !- Handle

OS:ZoneCapacitanceMultiplier:ResearchSpecial,
  {4020ce4f-5a7a-4849-8028-8305d7b751b1}, !- Handle
  ,                                       !- Temperature Capacity Multiplier
  ,                                       !- Humidity Capacity Multiplier
  ;                                       !- Carbon Dioxide Capacity Multiplier

OS:RunPeriod,
  {28df894d-6af9-4fb8-8f56-df1753344aa3}, !- Handle
  Run Period 1,                           !- Name
  1,                                      !- Begin Month
  1,                                      !- Begin Day of Month
  12,                                     !- End Month
  31,                                     !- End Day of Month
  ,                                       !- Use Weather File Holidays and Special Days
  ,                                       !- Use Weather File Daylight Saving Period
  ,                                       !- Apply Weekend Holiday Rule
  ,                                       !- Use Weather File Rain Indicators
  ,                                       !- Use Weather File Snow Indicators
  ;                                       !- Number of Times Runperiod to be Repeated

OS:Building,
  {bf305633-c5a1-4881-9edf-ca5e1a8e1274}, !- Handle
  Building 1,                             !- Name
  ,                                       !- Building Sector Type
  ,                                       !- North Axis {deg}
  ,                                       !- Nominal Floor to Floor Height {m}
  ,                                       !- Space Type Name
  ,                                       !- Default Construction Set Name
  {03aea99f-ab2f-48db-8043-b08538be86ae}, !- Default Schedule Set Name
  ,                                       !- Standards Number of Stories
  ,                                       !- Standards Number of Above Ground Stories
  Warehouse;                              !- Standards Building Type

OS:LifeCycleCost:Parameters,
  {231cf8a0-f0e7-4251-a99f-11f0d464e661}, !- Handle
  FEMP,                                   !- Analysis Type
  ,                                       !- Discounting Convention
  ,                                       !- Inflation Approach
  ,                                       !- Real Discount Rate
  ,                                       !- Nominal Discount Rate
  ,                                       !- Inflation
  ,                                       !- Base Date Month
  ,                                       !- Base Date Year
  ,                                       !- Service Date Month
  ,                                       !- Service Date Year
  ,                                       !- Length of Study Period in Years
  ,                                       !- Tax Rate
  ,                                       !- Depreciation Method
  Yes;                                    !- Use NIST Fuel Escalation Rates

OS:Facility,
  {3ba8e45b-b833-44eb-a723-ea6c3946dc96}; !- Handle

OS:SpaceType,
  {d03a4cd8-ccc4-4a66-abc1-a7246f6d03f2}, !- Handle
  Warehouse|BlendA|DOE Ref 1980-2004|ASHRAE 169-2006-5A, !- Name
  {6fa887a0-0da9-416d-bcbb-049e52e01fb3}, !- Default Construction Set Name
  ,                                       !- Default Schedule Set Name
  {3208944b-8b7d-4916-b0d9-84f2af9e525d}, !- Group Rendering Name
  {1af0479b-0e23-4bc0-8ffb-e1896dd30ffd}, !- Design Specification Outdoor Air Object Name
  Warehouse,                              !- Standards Building Type
  BlendA;                                 !- Standards Space Type

OS:Rendering:Color,
  {3208944b-8b7d-4916-b0d9-84f2af9e525d}, !- Handle
  Rendering Color 1,                      !- Name
  41,                                     !- Rendering Red Value
  31,                                     !- Rendering Green Value
  169;                                    !- Rendering Blue Value

OS:SpaceType,
  {74173015-d86f-4817-9a0d-f709a1f0cde6}, !- Handle
  Warehouse|Office|DOE Ref 1980-2004|ASHRAE 169-2006-5A, !- Name
  {6fa887a0-0da9-416d-bcbb-049e52e01fb3}, !- Default Construction Set Name
  {8f9fbc51-c6d8-4e8a-b55e-c7a3c4880318}, !- Default Schedule Set Name
  {9a97ada0-180a-4615-9fbc-a8470cdd2563}, !- Group Rendering Name
  {9d082f8d-3acd-4ca4-a1e9-8df0cf12fa16}, !- Design Specification Outdoor Air Object Name
  Warehouse,                              !- Standards Building Type
  Office;                                 !- Standards Space Type

OS:Rendering:Color,
  {9a97ada0-180a-4615-9fbc-a8470cdd2563}, !- Handle
  Rendering Color 2,                      !- Name
  120,                                    !- Rendering Red Value
  230,                                    !- Rendering Green Value
  199;                                    !- Rendering Blue Value

OS:Schedule:Ruleset,
  {2eee6451-e583-4a4a-99d0-93a0961496f8}, !- Handle
  0700|1700|Warehouse|default|hoo,        !- Name
  {563acb85-90b1-484b-afa2-e6ff44184c9f}, !- Schedule Type Limits Name
  {b4522d23-c3d5-40c2-a809-50fbbda9a8a7}, !- Default Day Schedule Name
  {4074288e-6070-43c4-be0a-c6c9e88c89d1}, !- Summer Design Day Schedule Name
  {54e8ac6c-91ea-44b0-9d6b-3d2c64ce07a7}; !- Winter Design Day Schedule Name

OS:Schedule:Day,
  {b4522d23-c3d5-40c2-a809-50fbbda9a8a7}, !- Handle
  0700|1700|Warehouse|default|hoo Schedule Week Day, !- Name
  {563acb85-90b1-484b-afa2-e6ff44184c9f}, !- Schedule Type Limits Name
  ,                                       !- Interpolate to Timestep
  7,                                      !- Hour 1
  0,                                      !- Minute 1
  0,                                      !- Value Until Time 1
  17,                                     !- Hour 2
  0,                                      !- Minute 2
  1,                                      !- Value Until Time 2
  24,                                     !- Hour 3
  0,                                      !- Minute 3
  0;                                      !- Value Until Time 3

OS:Schedule:Day,
  {b09ec58c-2da8-4107-b43e-85a180827695}, !- Handle
  Schedule Day 2,                         !- Name
  ,                                       !- Schedule Type Limits Name
  ,                                       !- Interpolate to Timestep
  24,                                     !- Hour 1
  0,                                      !- Minute 1
  0;                                      !- Value Until Time 1

OS:Schedule:Day,
  {54e8ac6c-91ea-44b0-9d6b-3d2c64ce07a7}, !- Handle
  0700|1700|Warehouse|default|hoo Winter Design Day, !- Name
  {563acb85-90b1-484b-afa2-e6ff44184c9f}, !- Schedule Type Limits Name
  ,                                       !- Interpolate to Timestep
  24,                                     !- Hour 1
  0,                                      !- Minute 1
  0;                                      !- Value Until Time 1

OS:Schedule:Day,
  {f4a928d6-7976-4171-8085-186fa19f386d}, !- Handle
  Schedule Day 3,                         !- Name
  ,                                       !- Schedule Type Limits Name
  ,                                       !- Interpolate to Timestep
  24,                                     !- Hour 1
  0,                                      !- Minute 1
  0;                                      !- Value Until Time 1

OS:Schedule:Day,
  {4074288e-6070-43c4-be0a-c6c9e88c89d1}, !- Handle
  0700|1700|Warehouse|default|hoo Summer Design Day, !- Name
  {563acb85-90b1-484b-afa2-e6ff44184c9f}, !- Schedule Type Limits Name
  ,                                       !- Interpolate to Timestep
  24,                                     !- Hour 1
  0,                                      !- Minute 1
  1;                                      !- Value Until Time 1

OS:DefaultScheduleSet,
  {03aea99f-ab2f-48db-8043-b08538be86ae}, !- Handle
  Building Hours of Operation,            !- Name
  {2eee6451-e583-4a4a-99d0-93a0961496f8}, !- Hours of Operation Schedule Name
  ,                                       !- Number of People Schedule Name
  ,                                       !- People Activity Level Schedule Name
  ,                                       !- Lighting Schedule Name
  ,                                       !- Electric Equipment Schedule Name
  ,                                       !- Gas Equipment Schedule Name
  ,                                       !- Hot Water Equipment Schedule Name
  ,                                       !- Infiltration Schedule Name
  ,                                       !- Steam Equipment Schedule Name
  ;                                       !- Other Equipment Schedule Name

OS:ScheduleTypeLimits,
  {563acb85-90b1-484b-afa2-e6ff44184c9f}, !- Handle
  OnOff,                                  !- Name
  0,                                      !- Lower Limit Value {BasedOnField A4}
  1,                                      !- Upper Limit Value {BasedOnField A4}
  Discrete,                               !- Numeric Type
  Availability;                           !- Unit Type

OS:Schedule:Ruleset,
  {a7676829-8b78-4806-b019-2635c4d57f4d}, !- Handle
  0700|1700|Warehouse|Bulk|htg_setpoint,  !- Name
  {1c73dced-5255-4124-8210-dc1eb6fad3ba}, !- Schedule Type Limits Name
  {32a1a2a6-e787-454c-9888-3e42ef9975ef}, !- Default Day Schedule Name
  {552fe309-3755-4e47-b2f1-980517fab419}, !- Summer Design Day Schedule Name
  {82908cf8-1609-4059-b146-4afcec5ff7d0}; !- Winter Design Day Schedule Name

OS:ScheduleTypeLimits,
  {1c73dced-5255-4124-8210-dc1eb6fad3ba}, !- Handle
  Thermostat Heating Setpoint Schedule Type Limits, !- Name
  0,                                      !- Lower Limit Value {BasedOnField A4}
  100,                                    !- Upper Limit Value {BasedOnField A4}
  Continuous,                             !- Numeric Type
  Temperature;                            !- Unit Type

OS:Schedule:Day,
  {32a1a2a6-e787-454c-9888-3e42ef9975ef}, !- Handle
  0700|1700|Warehouse|Bulk|htg_setpoint |default, !- Name
  {1c73dced-5255-4124-8210-dc1eb6fad3ba}, !- Schedule Type Limits Name
  ,                                       !- Interpolate to Timestep
  24,                                     !- Hour 1
  0,                                      !- Minute 1
  7.20000000000005;                       !- Value Until Time 1

OS:Schedule:Day,
  {552fe309-3755-4e47-b2f1-980517fab419}, !- Handle
  0700|1700|Warehouse|Bulk|htg_setpoint Summer Design Day, !- Name
  {1c73dced-5255-4124-8210-dc1eb6fad3ba}, !- Schedule Type Limits Name
  ,                                       !- Interpolate to Timestep
  24,                                     !- Hour 1
  0,                                      !- Minute 1
  7.20000000000005;                       !- Value Until Time 1

OS:Schedule:Day,
  {82908cf8-1609-4059-b146-4afcec5ff7d0}, !- Handle
  0700|1700|Warehouse|Bulk|htg_setpoint Winter Design Day, !- Name
  {1c73dced-5255-4124-8210-dc1eb6fad3ba}, !- Schedule Type Limits Name
  ,                                       !- Interpolate to Timestep
  24,                                     !- Hour 1
  0,                                      !- Minute 1
  7.20000000000005;                       !- Value Until Time 1

OS:Schedule:Ruleset,
  {26f0e67a-b6f8-4417-84d8-c0f027199463}, !- Handle
  0700|1700|Warehouse|default|thermal_ctrl, !- Name
  {1c73429f-8c96-4b04-aeed-5d398dddcfc2}, !- Schedule Type Limits Name
  {8ef99927-c27c-4582-8b16-fbb2af29e4cf}, !- Default Day Schedule Name
  {69f11de0-60ea-4a64-b2cf-e620104fc927}, !- Summer Design Day Schedule Name
  {8733e539-232f-4b8a-b4b2-302791b9ec75}; !- Winter Design Day Schedule Name

OS:ScheduleTypeLimits,
  {1c73429f-8c96-4b04-aeed-5d398dddcfc2}, !- Handle
  Dimensionless Schedule Type Limits,     !- Name
  ,                                       !- Lower Limit Value {BasedOnField A4}
  ,                                       !- Upper Limit Value {BasedOnField A4}
  Continuous,                             !- Numeric Type
  Dimensionless;                          !- Unit Type

OS:Schedule:Day,
  {8ef99927-c27c-4582-8b16-fbb2af29e4cf}, !- Handle
  0700|1700|Warehouse|default|thermal_ctrl |default, !- Name
  {1c73429f-8c96-4b04-aeed-5d398dddcfc2}, !- Schedule Type Limits Name
  ,                                       !- Interpolate to Timestep
  24,                                     !- Hour 1
  0,                                      !- Minute 1
  4;                                      !- Value Until Time 1

OS:Schedule:Day,
  {69f11de0-60ea-4a64-b2cf-e620104fc927}, !- Handle
  0700|1700|Warehouse|default|thermal_ctrl Summer Design Day, !- Name
  {1c73429f-8c96-4b04-aeed-5d398dddcfc2}, !- Schedule Type Limits Name
  ,                                       !- Interpolate to Timestep
  24,                                     !- Hour 1
  0,                                      !- Minute 1
  4;                                      !- Value Until Time 1

OS:Schedule:Day,
  {8733e539-232f-4b8a-b4b2-302791b9ec75}, !- Handle
  0700|1700|Warehouse|default|thermal_ctrl Winter Design Day, !- Name
  {1c73429f-8c96-4b04-aeed-5d398dddcfc2}, !- Schedule Type Limits Name
  ,                                       !- Interpolate to Timestep
  24,                                     !- Hour 1
  0,                                      !- Minute 1
  4;                                      !- Value Until Time 1

OS:Schedule:Ruleset,
  {d2ac0426-f231-4a4b-bfc7-82ce5bd5110b}, !- Handle
  0700|1700|Warehouse|default|lighting,   !- Name
  {ea0394d7-5d98-4469-8ec2-ea7b9f12b2cc}, !- Schedule Type Limits Name
  {ac72bdb0-1acf-42c2-bcbd-aceab28a6209}, !- Default Day Schedule Name
  {9ff89a73-7eed-4fe6-9df8-9317281edee4}, !- Summer Design Day Schedule Name
  {8c197f7b-bfcd-4dff-845d-e466382b329b}; !- Winter Design Day Schedule Name

OS:ScheduleTypeLimits,
  {ea0394d7-5d98-4469-8ec2-ea7b9f12b2cc}, !- Handle
  Lights Schedule Type Limits,            !- Name
  0,                                      !- Lower Limit Value {BasedOnField A4}
  1,                                      !- Upper Limit Value {BasedOnField A4}
  Continuous,                             !- Numeric Type
  Dimensionless;                          !- Unit Type

OS:Schedule:Day,
  {ac72bdb0-1acf-42c2-bcbd-aceab28a6209}, !- Handle
  0700|1700|Warehouse|default|lighting |default, !- Name
  {ea0394d7-5d98-4469-8ec2-ea7b9f12b2cc}, !- Schedule Type Limits Name
  ,                                       !- Interpolate to Timestep
  7,                                      !- Hour 1
  0,                                      !- Minute 1
  0.1,                                    !- Value Until Time 1
  8,                                      !- Hour 2
  0,                                      !- Minute 2
  0.4,                                    !- Value Until Time 2
  9,                                      !- Hour 3
  0,                                      !- Minute 3
  0.7,                                    !- Value Until Time 3
  12,                                     !- Hour 4
  0,                                      !- Minute 4
  0.9,                                    !- Value Until Time 4
  13,                                     !- Hour 5
  0,                                      !- Minute 5
  0.8,                                    !- Value Until Time 5
  17,                                     !- Hour 6
  0,                                      !- Minute 6
  0.9,                                    !- Value Until Time 6
  18,                                     !- Hour 7
  0,                                      !- Minute 7
  0.3,                                    !- Value Until Time 7
  24,                                     !- Hour 8
  0,                                      !- Minute 8
  0.1;                                    !- Value Until Time 8

OS:Schedule:Day,
  {9ff89a73-7eed-4fe6-9df8-9317281edee4}, !- Handle
  0700|1700|Warehouse|default|lighting Summer Design Day, !- Name
  {ea0394d7-5d98-4469-8ec2-ea7b9f12b2cc}, !- Schedule Type Limits Name
  ,                                       !- Interpolate to Timestep
  7,                                      !- Hour 1
  0,                                      !- Minute 1
  0.1,                                    !- Value Until Time 1
  18,                                     !- Hour 2
  0,                                      !- Minute 2
  1,                                      !- Value Until Time 2
  24,                                     !- Hour 3
  0,                                      !- Minute 3
  0.1;                                    !- Value Until Time 3

OS:Schedule:Day,
  {8c197f7b-bfcd-4dff-845d-e466382b329b}, !- Handle
  0700|1700|Warehouse|default|lighting Winter Design Day, !- Name
  {ea0394d7-5d98-4469-8ec2-ea7b9f12b2cc}, !- Schedule Type Limits Name
  ,                                       !- Interpolate to Timestep
  24,                                     !- Hour 1
  0,                                      !- Minute 1
  0.1;                                    !- Value Until Time 1

OS:Schedule:Rule,
  {bc05c3ad-09f0-4234-8711-e7611a1c4e52}, !- Handle
  0700|1700|Warehouse|default|lighting |1/1-12/31|Sat Rule, !- Name
  {d2ac0426-f231-4a4b-bfc7-82ce5bd5110b}, !- Schedule Ruleset Name
  0,                                      !- Rule Order
  {454ca1a5-2b9c-4543-8ea3-724a59c92255}, !- Day Schedule Name
  ,                                       !- Apply Sunday
  ,                                       !- Apply Monday
  ,                                       !- Apply Tuesday
  ,                                       !- Apply Wednesday
  ,                                       !- Apply Thursday
  ,                                       !- Apply Friday
  Yes,                                    !- Apply Saturday
  ,                                       !- Apply Holiday
  DateRange,                              !- Date Specification Type
  1,                                      !- Start Month
  1,                                      !- Start Day
  12,                                     !- End Month
  31;                                     !- End Day

OS:Schedule:Day,
  {454ca1a5-2b9c-4543-8ea3-724a59c92255}, !- Handle
  0700|1700|Warehouse|default|lighting |1/1-12/31|Sat, !- Name
  {ea0394d7-5d98-4469-8ec2-ea7b9f12b2cc}, !- Schedule Type Limits Name
  ,                                       !- Interpolate to Timestep
  9,                                      !- Hour 1
  0,                                      !- Minute 1
  0.1,                                    !- Value Until Time 1
  12,                                     !- Hour 2
  0,                                      !- Minute 2
  0.24,                                   !- Value Until Time 2
  24,                                     !- Hour 3
  0,                                      !- Minute 3
  0.1;                                    !- Value Until Time 3

OS:Schedule:Rule,
  {70259a75-3305-451b-adac-4998255eff44}, !- Handle
  0700|1700|Warehouse|default|lighting |1/1-12/31|Sun Rule, !- Name
  {d2ac0426-f231-4a4b-bfc7-82ce5bd5110b}, !- Schedule Ruleset Name
  1,                                      !- Rule Order
  {8830dbaa-839e-4a20-8ee0-b9fc0d393315}, !- Day Schedule Name
  Yes,                                    !- Apply Sunday
  ,                                       !- Apply Monday
  ,                                       !- Apply Tuesday
  ,                                       !- Apply Wednesday
  ,                                       !- Apply Thursday
  ,                                       !- Apply Friday
  ,                                       !- Apply Saturday
  ,                                       !- Apply Holiday
  DateRange,                              !- Date Specification Type
  1,                                      !- Start Month
  1,                                      !- Start Day
  12,                                     !- End Month
  31;                                     !- End Day

OS:Schedule:Day,
  {8830dbaa-839e-4a20-8ee0-b9fc0d393315}, !- Handle
  0700|1700|Warehouse|default|lighting |1/1-12/31|Sun, !- Name
  {ea0394d7-5d98-4469-8ec2-ea7b9f12b2cc}, !- Schedule Type Limits Name
  ,                                       !- Interpolate to Timestep
  24,                                     !- Hour 1
  0,                                      !- Minute 1
  0.1;                                    !- Value Until Time 1

OS:Schedule:Ruleset,
  {0317704f-bc10-40ef-9263-2339fa234829}, !- Handle
  0700|1700|Warehouse|default|elevator,   !- Name
  {f5922587-23a6-4672-bb3a-fbd625ad2c27}, !- Schedule Type Limits Name
  {bb470ec4-86f5-4d64-a105-d6b014910412}, !- Default Day Schedule Name
  {bb8bd8a8-d264-4173-b34b-7fd22b801911}, !- Summer Design Day Schedule Name
  {3858cd8d-875a-4ac3-9269-dfd2e35bbe89}; !- Winter Design Day Schedule Name

OS:ScheduleTypeLimits,
  {f5922587-23a6-4672-bb3a-fbd625ad2c27}, !- Handle
  Elevators Schedule Type Limits,         !- Name
  0,                                      !- Lower Limit Value {BasedOnField A4}
  1,                                      !- Upper Limit Value {BasedOnField A4}
  Continuous,                             !- Numeric Type
  Dimensionless;                          !- Unit Type

OS:Schedule:Day,
  {bb470ec4-86f5-4d64-a105-d6b014910412}, !- Handle
  0700|1700|Warehouse|default|elevator |default, !- Name
  {f5922587-23a6-4672-bb3a-fbd625ad2c27}, !- Schedule Type Limits Name
  ,                                       !- Interpolate to Timestep
  7,                                      !- Hour 1
  0,                                      !- Minute 1
  0,                                      !- Value Until Time 1
  17,                                     !- Hour 2
  0,                                      !- Minute 2
  1,                                      !- Value Until Time 2
  24,                                     !- Hour 3
  0,                                      !- Minute 3
  0;                                      !- Value Until Time 3

OS:Schedule:Day,
  {bb8bd8a8-d264-4173-b34b-7fd22b801911}, !- Handle
  0700|1700|Warehouse|default|elevator Summer Design Day, !- Name
  {f5922587-23a6-4672-bb3a-fbd625ad2c27}, !- Schedule Type Limits Name
  ,                                       !- Interpolate to Timestep
  7,                                      !- Hour 1
  0,                                      !- Minute 1
  0,                                      !- Value Until Time 1
  17,                                     !- Hour 2
  0,                                      !- Minute 2
  1,                                      !- Value Until Time 2
  24,                                     !- Hour 3
  0,                                      !- Minute 3
  0;                                      !- Value Until Time 3

OS:Schedule:Day,
  {3858cd8d-875a-4ac3-9269-dfd2e35bbe89}, !- Handle
  0700|1700|Warehouse|default|elevator Winter Design Day, !- Name
  {f5922587-23a6-4672-bb3a-fbd625ad2c27}, !- Schedule Type Limits Name
  ,                                       !- Interpolate to Timestep
  7,                                      !- Hour 1
  0,                                      !- Minute 1
  0,                                      !- Value Until Time 1
  17,                                     !- Hour 2
  0,                                      !- Minute 2
  1,                                      !- Value Until Time 2
  24,                                     !- Hour 3
  0,                                      !- Minute 3
  0;                                      !- Value Until Time 3

OS:Schedule:Ruleset,
  {a8f1bc2a-f643-4de6-be17-cd933e74b2dc}, !- Handle
  0700|1700|Warehouse|default|air_velocity, !- Name
  {1c73429f-8c96-4b04-aeed-5d398dddcfc2}, !- Schedule Type Limits Name
  {57214094-79c7-4c3e-b2a8-11334e91e9bd}, !- Default Day Schedule Name
  {903d34b1-9c75-4d7f-8413-3b00478ba033}, !- Summer Design Day Schedule Name
  {9be5a73a-eed3-4c1e-bb42-b1c9c32f6af2}; !- Winter Design Day Schedule Name

OS:Schedule:Day,
  {57214094-79c7-4c3e-b2a8-11334e91e9bd}, !- Handle
  0700|1700|Warehouse|default|air_velocity |default, !- Name
  {1c73429f-8c96-4b04-aeed-5d398dddcfc2}, !- Schedule Type Limits Name
  ,                                       !- Interpolate to Timestep
  24,                                     !- Hour 1
  0,                                      !- Minute 1
  0.200152;                               !- Value Until Time 1

OS:Schedule:Day,
  {903d34b1-9c75-4d7f-8413-3b00478ba033}, !- Handle
  0700|1700|Warehouse|default|air_velocity Summer Design Day, !- Name
  {1c73429f-8c96-4b04-aeed-5d398dddcfc2}, !- Schedule Type Limits Name
  ,                                       !- Interpolate to Timestep
  24,                                     !- Hour 1
  0,                                      !- Minute 1
  0.200152;                               !- Value Until Time 1

OS:Schedule:Day,
  {9be5a73a-eed3-4c1e-bb42-b1c9c32f6af2}, !- Handle
  0700|1700|Warehouse|default|air_velocity Winter Design Day, !- Name
  {1c73429f-8c96-4b04-aeed-5d398dddcfc2}, !- Schedule Type Limits Name
  ,                                       !- Interpolate to Timestep
  24,                                     !- Hour 1
  0,                                      !- Minute 1
  0.200152;                               !- Value Until Time 1

OS:Schedule:Ruleset,
  {c4c85146-db53-4359-bfbf-86593f1e2c68}, !- Handle
  0700|1700|Warehouse|default|elec_equip, !- Name
  {2e4ce0ae-9688-4f2d-978c-f030794928cc}, !- Schedule Type Limits Name
  {1cac43ad-3443-4f9a-a7c7-e47e23b762d5}, !- Default Day Schedule Name