
OS:Version,
  {93b2fa65-f0ad-4e8d-9087-2cef9b3fdf17}, !- Handle
  1.6.0;                                  !- Version Identifier

OS:ClimateZones,
  {135edfab-17e7-40db-a436-27d385a8cd6d}, !- Handle
  ,                                       !- Active Institution
  ,                                       !- Active Year
  ASHRAE,                                 !- Climate Zone Institution Name 1
  ANSI/ASHRAE Standard 169,               !- Climate Zone Document Name 1
  2006,                                   !- Climate Zone Document Year 1
  ,                                       !- Climate Zone Value 1
  CEC,                                    !- Climate Zone Institution Name 2
  California Climate Zone Descriptions,   !- Climate Zone Document Name 2
  1995,                                   !- Climate Zone Document Year 2
  ;                                       !- Climate Zone Value 2

OS:YearDescription,
  {513d8dda-86cb-442a-b01c-1f7f0e0ac70e}; !- Handle

OS:RadianceParameters,
  {270a96f1-3c86-4b75-a667-cdf22790e2c8}, !- Handle
  1,                                      !- Accumulated Rays per Record
  0,                                      !- Direct Threshold
  1,                                      !- Direct Certainty
  1,                                      !- Direct Jitter
  1,                                      !- Direct Pretest
  6,                                      !- Ambient Bounces VMX
  2,                                      !- Ambient Bounces DMX
  4050,                                   !- Ambient Divisions VMX
  512,                                    !- Ambient Divisions DMX
  256,                                    !- Ambient Supersamples
  0.001,                                  !- Limit Weight VMX
  0.001,                                  !- Limit Weight DMX
  500,                                    !- Klems Sampling Density
  146;                                    !- Sky Discretization Resolution

OS:SimulationControl,
  {2c487a4c-bac9-4ac5-b669-1e49d9da7c2b}, !- Handle
  ,                                       !- Do Zone Sizing Calculation
  ,                                       !- Do System Sizing Calculation
  ,                                       !- Do Plant Sizing Calculation
  No,                                     !- Run Simulation for Sizing Periods
  ,                                       !- Run Simulation for Weather File Run Periods
  0.04,                                   !- Loads Convergence Tolerance Value
  ,                                       !- Temperature Convergence Tolerance Value {deltaC}
  ,                                       !- Solar Distribution
  ,                                       !- Maximum Number of Warmup Days
  2;                                      !- Minimum Number of Warmup Days

OS:Sizing:Parameters,
  {dde5af6f-7923-4600-a28a-7556673a0266}, !- Handle
  1.25,                                   !- Heating Sizing Factor
  1.15;                                   !- Cooling Sizing Factor

OS:ProgramControl,
  {05027a99-f2b3-4aeb-afc6-1425fbb4371d}; !- Handle

OS:Timestep,
  {4ebc9f1e-4707-402e-9844-67eb1ffbd522}, !- Handle
  2;                                      !- Number of Timesteps per Hour

OS:OutputControl:ReportingTolerances,
  {65797aa2-06a9-45fe-b69d-bc6e060399d3}; !- Handle

OS:ConvergenceLimits,
  {9fc11aba-8822-4f3d-970c-46391ba4040d}; !- Handle

OS:ShadowCalculation,
  {ca758bea-4416-4626-9bba-3d8795c79bd6}, !- Handle
  7,                                      !- Calculation Frequency
  15000;                                  !- Maximum Figures in Shadow Overlap Calculations

OS:SurfaceConvectionAlgorithm:Inside,
  {aaabfc36-718a-4ab0-b622-f186ebb45230}, !- Handle
  TARP;                                   !- Algorithm

OS:SurfaceConvectionAlgorithm:Outside,
  {9a0a9f6f-4bbd-4b12-a121-9492a1fcd7d6}, !- Handle
  DOE-2;                                  !- Algorithm

OS:HeatBalanceAlgorithm,
  {9d93e563-e1e0-46d7-9e39-d1c8aceb7212}, !- Handle
  ConductionTransferFunction,             !- Algorithm
  200;                                    !- Surface Temperature Upper Limit {F}

OS:ZoneAirHeatBalanceAlgorithm,
  {8520d93e-310f-4696-9bcd-36228bfdd743}, !- Handle
  AnalyticalSolution;                     !- Algorithm

OS:ZoneAirContaminantBalance,
  {eb5fc3ae-fb22-4160-8fcb-3e3b22b000d3}; !- Handle

OS:ZoneCapacitanceMultiplier:ResearchSpecial,
  {4020ce4f-5a7a-4849-8028-8305d7b751b1}, !- Handle
  ,                                       !- Temperature Capacity Multiplier
  ,                                       !- Humidity Capacity Multiplier
  ;                                       !- Carbon Dioxide Capacity Multiplier

OS:RunPeriod,
  {28df894d-6af9-4fb8-8f56-df1753344aa3}, !- Handle
  Run Period 1,                           !- Name
  1,                                      !- Begin Month
  1,                                      !- Begin Day of Month
  12,                                     !- End Month
  31,                                     !- End Day of Month
  ,                                       !- Use Weather File Holidays and Special Days
  ,                                       !- Use Weather File Daylight Saving Period
  ,                                       !- Apply Weekend Holiday Rule
  ,                                       !- Use Weather File Rain Indicators
  ,                                       !- Use Weather File Snow Indicators
  ;                                       !- Number of Times Runperiod to be Repeated

OS:Building,
  {bf305633-c5a1-4881-9edf-ca5e1a8e1274}, !- Handle
  Building 1,                             !- Name
  ,                                       !- Building Sector Type
  ,                                       !- North Axis {deg}
  ,                                       !- Nominal Floor to Floor Height {m}
  ,                                       !- Space Type Name
  ,                                       !- Default Construction Set Name
  {4eaaa6f0-deee-48bc-9ace-955f0d2b3656}, !- Default Schedule Set Name
  ,                                       !- Standards Number of Stories
  ,                                       !- Standards Number of Above Ground Stories
  Warehouse;                              !- Standards Building Type

OS:LifeCycleCost:Parameters,
  {231cf8a0-f0e7-4251-a99f-11f0d464e661}, !- Handle
  FEMP,                                   !- Analysis Type
  ,                                       !- Discounting Convention
  ,                                       !- Inflation Approach
  ,                                       !- Real Discount Rate
  ,                                       !- Nominal Discount Rate
  ,                                       !- Inflation
  ,                                       !- Base Date Month
  ,                                       !- Base Date Year
  ,                                       !- Service Date Month
  ,                                       !- Service Date Year
  ,                                       !- Length of Study Period in Years
  ,                                       !- Tax Rate
  ,                                       !- Depreciation Method
  Yes;                                    !- Use NIST Fuel Escalation Rates

OS:Facility,
  {3ba8e45b-b833-44eb-a723-ea6c3946dc96}; !- Handle

OS:SpaceType,
  {957a0f10-116b-4121-a929-40b9e76bde9a}, !- Handle
  Warehouse|BlendA|DOE Ref Pre-1980|ASHRAE 169-2006-5A, !- Name
  {38c53b22-6ead-40c2-912f-1fd07b133769}, !- Default Construction Set Name
  ,                                       !- Default Schedule Set Name
  {9056507d-9046-464e-bc57-a941c91d8ad8}, !- Group Rendering Name
  {4a075fd5-8871-4fe9-bcb3-e710576002c6}, !- Design Specification Outdoor Air Object Name
  Warehouse,                              !- Standards Building Type
  BlendA;                                 !- Standards Space Type

OS:Rendering:Color,
  {9056507d-9046-464e-bc57-a941c91d8ad8}, !- Handle
  Rendering Color 1,                      !- Name
  41,                                     !- Rendering Red Value
  31,                                     !- Rendering Green Value
  169;                                    !- Rendering Blue Value

OS:SpaceType,
  {7f8d6e00-dec3-43fd-b303-766e7ba5e697}, !- Handle
  Warehouse|Office|DOE Ref Pre-1980|ASHRAE 169-2006-5A, !- Name
  {38c53b22-6ead-40c2-912f-1fd07b133769}, !- Default Construction Set Name
  {d92417b3-9af8-4241-bb7e-1015879d7b70}, !- Default Schedule Set Name
  {0e5f2053-af75-4f1f-b858-63c88178a74e}, !- Group Rendering Name
  {c6c9b11e-b953-4ce1-a770-9f1296de5cb7}, !- Design Specification Outdoor Air Object Name
  Warehouse,                              !- Standards Building Type
  Office;                                 !- Standards Space Type

OS:Rendering:Color,
  {0e5f2053-af75-4f1f-b858-63c88178a74e}, !- Handle
  Rendering Color 2,                      !- Name
  120,                                    !- Rendering Red Value
  230,                                    !- Rendering Green Value
  199;                                    !- Rendering Blue Value

OS:Schedule:Ruleset,
  {ce9c13d5-7624-4692-8741-e350add5fcbd}, !- Handle
  0700|1700|Warehouse|default|hoo,        !- Name
  {050b135f-705d-40e1-b00e-1474fa8d2cd3}, !- Schedule Type Limits Name
  {e6ffe9fb-3fda-4192-95d2-ae84f059965c}, !- Default Day Schedule Name
  {956ca9ae-085b-465d-b89e-575ece0fe039}, !- Summer Design Day Schedule Name
  {9759f29e-8765-4460-99f7-c161113f5d8d}; !- Winter Design Day Schedule Name

OS:Schedule:Day,
  {e6ffe9fb-3fda-4192-95d2-ae84f059965c}, !- Handle
  0700|1700|Warehouse|default|hoo Schedule Week Day, !- Name
  {050b135f-705d-40e1-b00e-1474fa8d2cd3}, !- Schedule Type Limits Name
  ,                                       !- Interpolate to Timestep
  7,                                      !- Hour 1
  0,                                      !- Minute 1
  0,                                      !- Value Until Time 1
  17,                                     !- Hour 2
  0,                                      !- Minute 2
  1,                                      !- Value Until Time 2
  24,                                     !- Hour 3
  0,                                      !- Minute 3
  0;                                      !- Value Until Time 3

OS:Schedule:Day,
  {211b63ae-2797-403b-be43-bb25489af2e9}, !- Handle
  Schedule Day 2,                         !- Name
  ,                                       !- Schedule Type Limits Name
  ,                                       !- Interpolate to Timestep
  24,                                     !- Hour 1
  0,                                      !- Minute 1
  0;                                      !- Value Until Time 1

OS:Schedule:Day,
  {9759f29e-8765-4460-99f7-c161113f5d8d}, !- Handle
  0700|1700|Warehouse|default|hoo Winter Design Day, !- Name
  {050b135f-705d-40e1-b00e-1474fa8d2cd3}, !- Schedule Type Limits Name
  ,                                       !- Interpolate to Timestep
  24,                                     !- Hour 1
  0,                                      !- Minute 1
  0;                                      !- Value Until Time 1

OS:Schedule:Day,
  {4c99dd89-9837-42ed-a26e-11558ab5fed2}, !- Handle
  Schedule Day 3,                         !- Name
  ,                                       !- Schedule Type Limits Name
  ,                                       !- Interpolate to Timestep
  24,                                     !- Hour 1
  0,                                      !- Minute 1
  0;                                      !- Value Until Time 1

OS:Schedule:Day,
  {956ca9ae-085b-465d-b89e-575ece0fe039}, !- Handle
  0700|1700|Warehouse|default|hoo Summer Design Day, !- Name
  {050b135f-705d-40e1-b00e-1474fa8d2cd3}, !- Schedule Type Limits Name
  ,                                       !- Interpolate to Timestep
  24,                                     !- Hour 1
  0,                                      !- Minute 1
  1;                                      !- Value Until Time 1

OS:DefaultScheduleSet,
  {4eaaa6f0-deee-48bc-9ace-955f0d2b3656}, !- Handle
  Building Hours of Operation,            !- Name
  {ce9c13d5-7624-4692-8741-e350add5fcbd}, !- Hours of Operation Schedule Name
  ,                                       !- Number of People Schedule Name
  ,                                       !- People Activity Level Schedule Name
  ,                                       !- Lighting Schedule Name
  ,                                       !- Electric Equipment Schedule Name
  ,                                       !- Gas Equipment Schedule Name
  ,                                       !- Hot Water Equipment Schedule Name
  ,                                       !- Infiltration Schedule Name
  ,                                       !- Steam Equipment Schedule Name
  ;                                       !- Other Equipment Schedule Name

OS:ScheduleTypeLimits,
  {050b135f-705d-40e1-b00e-1474fa8d2cd3}, !- Handle
  OnOff,                                  !- Name
  0,                                      !- Lower Limit Value {BasedOnField A4}
  1,                                      !- Upper Limit Value {BasedOnField A4}
  Discrete,                               !- Numeric Type
  Availability;                           !- Unit Type

OS:Schedule:Ruleset,
  {276ef059-332b-4888-a0e5-fc6d473bb274}, !- Handle
  0700|1700|Warehouse|Bulk|htg_setpoint,  !- Name
  {f6346724-d742-4867-bbf6-7324700ef251}, !- Schedule Type Limits Name
  {85f7f048-d914-4223-822f-ac371b3c9233}, !- Default Day Schedule Name
  {3bd57379-46a7-4164-9c96-eb2088ec5b15}, !- Summer Design Day Schedule Name
  {0417a6ad-4ed0-45f6-9a13-298d4769348d}; !- Winter Design Day Schedule Name

OS:ScheduleTypeLimits,
  {f6346724-d742-4867-bbf6-7324700ef251}, !- Handle
  Thermostat Heating Setpoint Schedule Type Limits, !- Name
  0,                                      !- Lower Limit Value {BasedOnField A4}
  100,                                    !- Upper Limit Value {BasedOnField A4}
  Continuous,                             !- Numeric Type
  Temperature;                            !- Unit Type

OS:Schedule:Day,
  {85f7f048-d914-4223-822f-ac371b3c9233}, !- Handle
  0700|1700|Warehouse|Bulk|htg_setpoint |default, !- Name
  {f6346724-d742-4867-bbf6-7324700ef251}, !- Schedule Type Limits Name
  ,                                       !- Interpolate to Timestep
  24,                                     !- Hour 1
  0,                                      !- Minute 1
  7.20000000000005;                       !- Value Until Time 1

OS:Schedule:Day,
  {3bd57379-46a7-4164-9c96-eb2088ec5b15}, !- Handle
  0700|1700|Warehouse|Bulk|htg_setpoint Summer Design Day, !- Name
  {f6346724-d742-4867-bbf6-7324700ef251}, !- Schedule Type Limits Name
  ,                                       !- Interpolate to Timestep
  24,                                     !- Hour 1
  0,                                      !- Minute 1
  7.20000000000005;                       !- Value Until Time 1

OS:Schedule:Day,
  {0417a6ad-4ed0-45f6-9a13-298d4769348d}, !- Handle
  0700|1700|Warehouse|Bulk|htg_setpoint Winter Design Day, !- Name
  {f6346724-d742-4867-bbf6-7324700ef251}, !- Schedule Type Limits Name
  ,                                       !- Interpolate to Timestep
  24,                                     !- Hour 1
  0,                                      !- Minute 1
  7.20000000000005;                       !- Value Until Time 1

OS:Schedule:Ruleset,
  {310d3b30-5b75-442e-b256-9f02a4804e7f}, !- Handle
  0700|1700|Warehouse|default|thermal_ctrl, !- Name
  {5d13e190-fcec-4123-8b9f-972e8c5f6268}, !- Schedule Type Limits Name
  {7787d462-93d2-4996-8b79-8c1cf59e342d}, !- Default Day Schedule Name
  {53866bc0-07c6-435a-8b28-4c2dc3fbdf19}, !- Summer Design Day Schedule Name
  {064e3ccb-af67-4fd3-8830-03aca742d83b}; !- Winter Design Day Schedule Name

OS:ScheduleTypeLimits,
  {5d13e190-fcec-4123-8b9f-972e8c5f6268}, !- Handle
  Dimensionless Schedule Type Limits,     !- Name
  ,                                       !- Lower Limit Value {BasedOnField A4}
  ,                                       !- Upper Limit Value {BasedOnField A4}
  Continuous,                             !- Numeric Type
  Dimensionless;                          !- Unit Type

OS:Schedule:Day,
  {7787d462-93d2-4996-8b79-8c1cf59e342d}, !- Handle
  0700|1700|Warehouse|default|thermal_ctrl |default, !- Name
  {5d13e190-fcec-4123-8b9f-972e8c5f6268}, !- Schedule Type Limits Name
  ,                                       !- Interpolate to Timestep
  24,                                     !- Hour 1
  0,                                      !- Minute 1
  4;                                      !- Value Until Time 1

OS:Schedule:Day,
  {53866bc0-07c6-435a-8b28-4c2dc3fbdf19}, !- Handle
  0700|1700|Warehouse|default|thermal_ctrl Summer Design Day, !- Name
  {5d13e190-fcec-4123-8b9f-972e8c5f6268}, !- Schedule Type Limits Name
  ,                                       !- Interpolate to Timestep
  24,                                     !- Hour 1
  0,                                      !- Minute 1
  4;                                      !- Value Until Time 1

OS:Schedule:Day,
  {064e3ccb-af67-4fd3-8830-03aca742d83b}, !- Handle
  0700|1700|Warehouse|default|thermal_ctrl Winter Design Day, !- Name
  {5d13e190-fcec-4123-8b9f-972e8c5f6268}, !- Schedule Type Limits Name
  ,                                       !- Interpolate to Timestep
  24,                                     !- Hour 1
  0,                                      !- Minute 1
  4;                                      !- Value Until Time 1

OS:Schedule:Ruleset,
  {eae1d43e-4248-4811-a54f-251b2d012ff2}, !- Handle
  0700|1700|Warehouse|default|lighting,   !- Name
  {9fa38566-9cfb-48e8-b02e-85df058f5222}, !- Schedule Type Limits Name
  {fd45f8f2-bc68-4d59-bcfa-132aa79f53a8}, !- Default Day Schedule Name
  {85fa519b-5ac2-4958-b6d8-6b03d3ecaf34}, !- Summer Design Day Schedule Name
  {20966f25-db0a-4814-93c6-34ac1bd9cd33}; !- Winter Design Day Schedule Name

OS:ScheduleTypeLimits,
  {9fa38566-9cfb-48e8-b02e-85df058f5222}, !- Handle
  Lights Schedule Type Limits,            !- Name
  0,                                      !- Lower Limit Value {BasedOnField A4}
  1,                                      !- Upper Limit Value {BasedOnField A4}
  Continuous,                             !- Numeric Type
  Dimensionless;                          !- Unit Type

OS:Schedule:Day,
  {fd45f8f2-bc68-4d59-bcfa-132aa79f53a8}, !- Handle
  0700|1700|Warehouse|default|lighting |default, !- Name
  {9fa38566-9cfb-48e8-b02e-85df058f5222}, !- Schedule Type Limits Name
  ,                                       !- Interpolate to Timestep
  7,                                      !- Hour 1
  0,                                      !- Minute 1
  0.1,                                    !- Value Until Time 1
  8,                                      !- Hour 2
  0,                                      !- Minute 2
  0.4,                                    !- Value Until Time 2
  9,                                      !- Hour 3
  0,                                      !- Minute 3
  0.7,                                    !- Value Until Time 3
  12,                                     !- Hour 4
  0,                                      !- Minute 4
  0.9,                                    !- Value Until Time 4
  13,                                     !- Hour 5
  0,                                      !- Minute 5
  0.8,                                    !- Value Until Time 5
  17,                                     !- Hour 6
  0,                                      !- Minute 6
  0.9,                                    !- Value Until Time 6
  18,                                     !- Hour 7
  0,                                      !- Minute 7
  0.3,                                    !- Value Until Time 7
  24,                                     !- Hour 8
  0,                                      !- Minute 8
  0.1;                                    !- Value Until Time 8

OS:Schedule:Day,
  {85fa519b-5ac2-4958-b6d8-6b03d3ecaf34}, !- Handle
  0700|1700|Warehouse|default|lighting Summer Design Day, !- Name
  {9fa38566-9cfb-48e8-b02e-85df058f5222}, !- Schedule Type Limits Name
  ,                                       !- Interpolate to Timestep
  7,                                      !- Hour 1
  0,                                      !- Minute 1
  0.1,                                    !- Value Until Time 1
  18,                                     !- Hour 2
  0,                                      !- Minute 2
  1,                                      !- Value Until Time 2
  24,                                     !- Hour 3
  0,                                      !- Minute 3
  0.1;                                    !- Value Until Time 3

OS:Schedule:Day,
  {20966f25-db0a-4814-93c6-34ac1bd9cd33}, !- Handle
  0700|1700|Warehouse|default|lighting Winter Design Day, !- Name
  {9fa38566-9cfb-48e8-b02e-85df058f5222}, !- Schedule Type Limits Name
  ,                                       !- Interpolate to Timestep
  24,                                     !- Hour 1
  0,                                      !- Minute 1
  0.1;                                    !- Value Until Time 1

OS:Schedule:Rule,
  {2a3fc6b4-9fbd-4708-aa5d-dfc32106a97a}, !- Handle
  0700|1700|Warehouse|default|lighting |1/1-12/31|Sat Rule, !- Name
  {eae1d43e-4248-4811-a54f-251b2d012ff2}, !- Schedule Ruleset Name
  0,                                      !- Rule Order
  {44a055b4-263f-47ca-bac0-62a61c04bdf9}, !- Day Schedule Name
  ,                                       !- Apply Sunday
  ,                                       !- Apply Monday
  ,                                       !- Apply Tuesday
  ,                                       !- Apply Wednesday
  ,                                       !- Apply Thursday
  ,                                       !- Apply Friday
  Yes,                                    !- Apply Saturday
  ,                                       !- Apply Holiday
  DateRange,                              !- Date Specification Type
  1,                                      !- Start Month
  1,                                      !- Start Day
  12,                                     !- End Month
  31;                                     !- End Day

OS:Schedule:Day,
  {44a055b4-263f-47ca-bac0-62a61c04bdf9}, !- Handle
  0700|1700|Warehouse|default|lighting |1/1-12/31|Sat, !- Name
  {9fa38566-9cfb-48e8-b02e-85df058f5222}, !- Schedule Type Limits Name
  ,                                       !- Interpolate to Timestep
  9,                                      !- Hour 1
  0,                                      !- Minute 1
  0.1,                                    !- Value Until Time 1
  12,                                     !- Hour 2
  0,                                      !- Minute 2
  0.24,                                   !- Value Until Time 2
  24,                                     !- Hour 3
  0,                                      !- Minute 3
  0.1;                                    !- Value Until Time 3

OS:Schedule:Rule,
  {aad88f6d-33ce-47aa-ab6f-9fd0a6256ed1}, !- Handle
  0700|1700|Warehouse|default|lighting |1/1-12/31|Sun Rule, !- Name
  {eae1d43e-4248-4811-a54f-251b2d012ff2}, !- Schedule Ruleset Name
  1,                                      !- Rule Order
  {3e3c15e0-ac29-4dfb-bd72-c14181308ecc}, !- Day Schedule Name
  Yes,                                    !- Apply Sunday
  ,                                       !- Apply Monday
  ,                                       !- Apply Tuesday
  ,                                       !- Apply Wednesday
  ,                                       !- Apply Thursday
  ,                                       !- Apply Friday
  ,                                       !- Apply Saturday
  ,                                       !- Apply Holiday
  DateRange,                              !- Date Specification Type
  1,                                      !- Start Month
  1,                                      !- Start Day
  12,                                     !- End Month
  31;                                     !- End Day

OS:Schedule:Day,
  {3e3c15e0-ac29-4dfb-bd72-c14181308ecc}, !- Handle
  0700|1700|Warehouse|default|lighting |1/1-12/31|Sun, !- Name
  {9fa38566-9cfb-48e8-b02e-85df058f5222}, !- Schedule Type Limits Name
  ,                                       !- Interpolate to Timestep
  24,                                     !- Hour 1
  0,                                      !- Minute 1
  0.1;                                    !- Value Until Time 1

OS:Schedule:Ruleset,
  {84ce1046-cf58-4bab-b8b1-bd693e805469}, !- Handle
  0700|1700|Warehouse|default|elevator,   !- Name
  {6a71845d-c5f7-4b9e-ba97-a6558b5f0a9f}, !- Schedule Type Limits Name
  {2a1e2bf3-cf60-4750-8192-7bf84989f781}, !- Default Day Schedule Name
  {3c179acb-33a7-45f2-a45d-e7ab08582d07}, !- Summer Design Day Schedule Name
  {78ed66fd-71dc-420b-972e-ab993000181b}; !- Winter Design Day Schedule Name

OS:ScheduleTypeLimits,
  {6a71845d-c5f7-4b9e-ba97-a6558b5f0a9f}, !- Handle
  Elevators Schedule Type Limits,         !- Name
  0,                                      !- Lower Limit Value {BasedOnField A4}
  1,                                      !- Upper Limit Value {BasedOnField A4}
  Continuous,                             !- Numeric Type
  Dimensionless;                          !- Unit Type

OS:Schedule:Day,
  {2a1e2bf3-cf60-4750-8192-7bf84989f781}, !- Handle
  0700|1700|Warehouse|default|elevator |default, !- Name
  {6a71845d-c5f7-4b9e-ba97-a6558b5f0a9f}, !- Schedule Type Limits Name
  ,                                       !- Interpolate to Timestep
  7,                                      !- Hour 1
  0,                                      !- Minute 1
  0,                                      !- Value Until Time 1
  17,                                     !- Hour 2
  0,                                      !- Minute 2
  1,                                      !- Value Until Time 2
  24,                                     !- Hour 3
  0,                                      !- Minute 3
  0;                                      !- Value Until Time 3

OS:Schedule:Day,
  {3c179acb-33a7-45f2-a45d-e7ab08582d07}, !- Handle
  0700|1700|Warehouse|default|elevator Summer Design Day, !- Name
  {6a71845d-c5f7-4b9e-ba97-a6558b5f0a9f}, !- Schedule Type Limits Name
  ,                                       !- Interpolate to Timestep
  7,                                      !- Hour 1
  0,                                      !- Minute 1
  0,                                      !- Value Until Time 1
  17,                                     !- Hour 2
  0,                                      !- Minute 2
  1,                                      !- Value Until Time 2
  24,                                     !- Hour 3
  0,                                      !- Minute 3
  0;                                      !- Value Until Time 3

OS:Schedule:Day,
  {78ed66fd-71dc-420b-972e-ab993000181b}, !- Handle
  0700|1700|Warehouse|default|elevator Winter Design Day, !- Name
  {6a71845d-c5f7-4b9e-ba97-a6558b5f0a9f}, !- Schedule Type Limits Name
  ,                                       !- Interpolate to Timestep
  7,                                      !- Hour 1
  0,                                      !- Minute 1
  0,                                      !- Value Until Time 1
  17,                                     !- Hour 2
  0,                                      !- Minute 2
  1,                                      !- Value Until Time 2
  24,                                     !- Hour 3
  0,                                      !- Minute 3
  0;                                      !- Value Until Time 3

OS:Schedule:Ruleset,
  {b230c9f9-80f5-4222-bce8-ec395ff818af}, !- Handle
  0700|1700|Warehouse|default|air_velocity, !- Name
  {5d13e190-fcec-4123-8b9f-972e8c5f6268}, !- Schedule Type Limits Name
  {18600864-c170-4aa5-8184-5ca4945075df}, !- Default Day Schedule Name
  {da32577d-db83-493d-984c-017a95cc6fc6}, !- Summer Design Day Schedule Name
  {e134a595-8f99-4cc4-a54e-443406c3a639}; !- Winter Design Day Schedule Name

OS:Schedule:Day,
  {18600864-c170-4aa5-8184-5ca4945075df}, !- Handle
  0700|1700|Warehouse|default|air_velocity |default, !- Name
  {5d13e190-fcec-4123-8b9f-972e8c5f6268}, !- Schedule Type Limits Name
  ,                                       !- Interpolate to Timestep
  24,                                     !- Hour 1
  0,                                      !- Minute 1
  0.200152;                               !- Value Until Time 1

OS:Schedule:Day,
  {da32577d-db83-493d-984c-017a95cc6fc6}, !- Handle
  0700|1700|Warehouse|default|air_velocity Summer Design Day, !- Name
  {5d13e190-fcec-4123-8b9f-972e8c5f6268}, !- Schedule Type Limits Name
  ,                                       !- Interpolate to Timestep
  24,                                     !- Hour 1
  0,                                      !- Minute 1
  0.200152;                               !- Value Until Time 1

OS:Schedule:Day,
  {e134a595-8f99-4cc4-a54e-443406c3a639}, !- Handle
  0700|1700|Warehouse|default|air_velocity Winter Design Day, !- Name
  {5d13e190-fcec-4123-8b9f-972e8c5f6268}, !- Schedule Type Limits Name
  ,                                       !- Interpolate to Timestep
  24,                                     !- Hour 1
  0,                                      !- Minute 1
  0.200152;                               !- Value Until Time 1

OS:Schedule:Ruleset,
  {4596e50f-e942-4719-a874-4690f92b9235}, !- Handle
  0700|1700|Warehouse|default|elec_equip, !- Name
  {9664c886-3594-44b8-a1e4-85f23584ffd3}, !- Schedule Type Limits Name
  {5796cf58-551a-419b-bd7a-21323d9d3680}, !- Default Day Schedule Name