
OS:Version,
  {e246799a-1fb5-4cec-a27a-994a9bf65739}, !- Handle
  1.5.5;                                  !- Version Identifier

OS:ClimateZones,
  {135edfab-17e7-40db-a436-27d385a8cd6d}, !- Handle
  ,                                       !- Active Institution
  ,                                       !- Active Year
  ASHRAE,                                 !- Climate Zone Institution Name 1
  ANSI/ASHRAE Standard 169,               !- Climate Zone Document Name 1
  2006,                                   !- Climate Zone Document Year 1
  ,                                       !- Climate Zone Value 1
  CEC,                                    !- Climate Zone Institution Name 2
  California Climate Zone Descriptions,   !- Climate Zone Document Name 2
  1995,                                   !- Climate Zone Document Year 2
  ;                                       !- Climate Zone Value 2

OS:YearDescription,
  {513d8dda-86cb-442a-b01c-1f7f0e0ac70e}; !- Handle

OS:RadianceParameters,
  {270a96f1-3c86-4b75-a667-cdf22790e2c8}, !- Handle
  1,                                      !- Accumulated Rays per Record
  0,                                      !- Direct Threshold
  1,                                      !- Direct Certainty
  1,                                      !- Direct Jitter
  1,                                      !- Direct Pretest
  6,                                      !- Ambient Bounces VMX
  2,                                      !- Ambient Bounces DMX
  4050,                                   !- Ambient Divisions VMX
  512,                                    !- Ambient Divisions DMX
  256,                                    !- Ambient Supersamples
  0.001,                                  !- Limit Weight VMX
  0.001,                                  !- Limit Weight DMX
  500,                                    !- Klems Sampling Density
  146;                                    !- Sky Discretization Resolution

OS:SimulationControl,
  {2c487a4c-bac9-4ac5-b669-1e49d9da7c2b}, !- Handle
  ,                                       !- Do Zone Sizing Calculation
  ,                                       !- Do System Sizing Calculation
  ,                                       !- Do Plant Sizing Calculation
  No,                                     !- Run Simulation for Sizing Periods
  ,                                       !- Run Simulation for Weather File Run Periods
  0.04,                                   !- Loads Convergence Tolerance Value
  ,                                       !- Temperature Convergence Tolerance Value {deltaC}
  ,                                       !- Solar Distribution
  ,                                       !- Maximum Number of Warmup Days
  2;                                      !- Minimum Number of Warmup Days

OS:Sizing:Parameters,
  {dde5af6f-7923-4600-a28a-7556673a0266}, !- Handle
  1.25,                                   !- Heating Sizing Factor
  1.15;                                   !- Cooling Sizing Factor

OS:ProgramControl,
  {05027a99-f2b3-4aeb-afc6-1425fbb4371d}; !- Handle

OS:Timestep,
  {4ebc9f1e-4707-402e-9844-67eb1ffbd522}, !- Handle
  2;                                      !- Number of Timesteps per Hour

OS:OutputControl:ReportingTolerances,
  {65797aa2-06a9-45fe-b69d-bc6e060399d3}; !- Handle

OS:ConvergenceLimits,
  {9fc11aba-8822-4f3d-970c-46391ba4040d}; !- Handle

OS:ShadowCalculation,
  {ca758bea-4416-4626-9bba-3d8795c79bd6}, !- Handle
  7,                                      !- Calculation Frequency
  15000;                                  !- Maximum Figures in Shadow Overlap Calculations

OS:SurfaceConvectionAlgorithm:Inside,
  {aaabfc36-718a-4ab0-b622-f186ebb45230}, !- Handle
  TARP;                                   !- Algorithm

OS:SurfaceConvectionAlgorithm:Outside,
  {9a0a9f6f-4bbd-4b12-a121-9492a1fcd7d6}, !- Handle
  DOE-2;                                  !- Algorithm

OS:HeatBalanceAlgorithm,
  {9d93e563-e1e0-46d7-9e39-d1c8aceb7212}, !- Handle
  ConductionTransferFunction,             !- Algorithm
  200;                                    !- Surface Temperature Upper Limit {F}

OS:ZoneAirHeatBalanceAlgorithm,
  {8520d93e-310f-4696-9bcd-36228bfdd743}, !- Handle
  AnalyticalSolution;                     !- Algorithm

OS:ZoneAirContaminantBalance,
  {eb5fc3ae-fb22-4160-8fcb-3e3b22b000d3}; !- Handle

OS:ZoneCapacitanceMultiplier:ResearchSpecial,
  {4020ce4f-5a7a-4849-8028-8305d7b751b1}, !- Handle
  ,                                       !- Temperature Capacity Multiplier
  ,                                       !- Humidity Capacity Multiplier
  ;                                       !- Carbon Dioxide Capacity Multiplier

OS:RunPeriod,
  {28df894d-6af9-4fb8-8f56-df1753344aa3}, !- Handle
  Run Period 1,                           !- Name
  1,                                      !- Begin Month
  1,                                      !- Begin Day of Month
  12,                                     !- End Month
  31,                                     !- End Day of Month
  ,                                       !- Use Weather File Holidays and Special Days
  ,                                       !- Use Weather File Daylight Saving Period
  ,                                       !- Apply Weekend Holiday Rule
  ,                                       !- Use Weather File Rain Indicators
  ,                                       !- Use Weather File Snow Indicators
  ;                                       !- Number of Times Runperiod to be Repeated

OS:Building,
  {bf305633-c5a1-4881-9edf-ca5e1a8e1274}, !- Handle
  Building 1,                             !- Name
  ,                                       !- Building Sector Type
  ,                                       !- North Axis {deg}
  ,                                       !- Nominal Floor to Floor Height {m}
  ,                                       !- Space Type Name
  ,                                       !- Default Construction Set Name
  {6b252e68-ce4d-47a0-9142-93568de6c4e9}, !- Default Schedule Set Name
  ,                                       !- Standards Number of Stories
  ,                                       !- Standards Number of Above Ground Stories
  Warehouse;                              !- Standards Building Type

OS:LifeCycleCost:Parameters,
  {231cf8a0-f0e7-4251-a99f-11f0d464e661}, !- Handle
  FEMP,                                   !- Analysis Type
  ,                                       !- Discounting Convention
  ,                                       !- Inflation Approach
  ,                                       !- Real Discount Rate
  ,                                       !- Nominal Discount Rate
  ,                                       !- Inflation
  ,                                       !- Base Date Month
  ,                                       !- Base Date Year
  ,                                       !- Service Date Month
  ,                                       !- Service Date Year
  ,                                       !- Length of Study Period in Years
  ,                                       !- Tax Rate
  ,                                       !- Depreciation Method
  Yes;                                    !- Use NIST Fuel Escalation Rates

OS:Facility,
  {3ba8e45b-b833-44eb-a723-ea6c3946dc96}; !- Handle

OS:SpaceType,
  {5657c542-36a1-4801-8697-c8217b79d55f}, !- Handle
  Warehouse|BlendA|DOE Ref Pre-1980|ASHRAE 169-2006-5A, !- Name
  {fbd2dd56-f33f-4eae-afbe-6fa5067fbbf8}, !- Default Construction Set Name
  ,                                       !- Default Schedule Set Name
  {7928dfc8-0f57-44eb-88b6-d3d6ed1c91a1}, !- Group Rendering Name
  {5cf5afac-a3f9-4ad4-b08f-389305779e60}, !- Design Specification Outdoor Air Object Name
  Warehouse,                              !- Standards Building Type
  BlendA;                                 !- Standards Space Type

OS:Rendering:Color,
  {7928dfc8-0f57-44eb-88b6-d3d6ed1c91a1}, !- Handle
  Rendering Color 1,                      !- Name
  41,                                     !- Rendering Red Value
  31,                                     !- Rendering Green Value
  169;                                    !- Rendering Blue Value

OS:SpaceType,
  {fd353a33-cbff-414a-9da8-8d5c0000a31e}, !- Handle
  Warehouse|Office|DOE Ref Pre-1980|ASHRAE 169-2006-5A, !- Name
  {fbd2dd56-f33f-4eae-afbe-6fa5067fbbf8}, !- Default Construction Set Name
  {2c072a25-9759-40c4-bd0e-599e0eb6b798}, !- Default Schedule Set Name
  {4228f5a9-5c23-48ae-a125-60a40f163447}, !- Group Rendering Name
  {bd188364-11a8-49a3-bbf7-c6d39201af85}, !- Design Specification Outdoor Air Object Name
  Warehouse,                              !- Standards Building Type
  Office;                                 !- Standards Space Type

OS:Rendering:Color,
  {4228f5a9-5c23-48ae-a125-60a40f163447}, !- Handle
  Rendering Color 2,                      !- Name
  120,                                    !- Rendering Red Value
  230,                                    !- Rendering Green Value
  199;                                    !- Rendering Blue Value

OS:Schedule:Ruleset,
  {e1cccaeb-5e82-44fc-9606-e384282d747a}, !- Handle
  0700|1700|Warehouse|default|hoo,        !- Name
  {9aca401f-0789-41cf-a06a-089dcd4bc944}, !- Schedule Type Limits Name
  {47ec9b14-f178-4020-907e-f3ecbee628e9}, !- Default Day Schedule Name
  {278888eb-2ed8-466d-9111-b726eed1f257}, !- Summer Design Day Schedule Name
  {40cf0fe2-b9a1-4965-b37f-1f60125405a4}; !- Winter Design Day Schedule Name

OS:Schedule:Day,
  {47ec9b14-f178-4020-907e-f3ecbee628e9}, !- Handle
  0700|1700|Warehouse|default|hoo Schedule Week Day, !- Name
  {9aca401f-0789-41cf-a06a-089dcd4bc944}, !- Schedule Type Limits Name
  ,                                       !- Interpolate to Timestep
  7,                                      !- Hour 1
  0,                                      !- Minute 1
  0,                                      !- Value Until Time 1
  17,                                     !- Hour 2
  0,                                      !- Minute 2
  1,                                      !- Value Until Time 2
  24,                                     !- Hour 3
  0,                                      !- Minute 3
  0;                                      !- Value Until Time 3

OS:Schedule:Day,
  {63bcb50c-3493-440f-933e-9bf910439353}, !- Handle
  Schedule Day 2,                         !- Name
  ,                                       !- Schedule Type Limits Name
  ,                                       !- Interpolate to Timestep
  24,                                     !- Hour 1
  0,                                      !- Minute 1
  0;                                      !- Value Until Time 1

OS:Schedule:Day,
  {40cf0fe2-b9a1-4965-b37f-1f60125405a4}, !- Handle
  0700|1700|Warehouse|default|hoo Winter Design Day, !- Name
  {9aca401f-0789-41cf-a06a-089dcd4bc944}, !- Schedule Type Limits Name
  ,                                       !- Interpolate to Timestep
  24,                                     !- Hour 1
  0,                                      !- Minute 1
  0;                                      !- Value Until Time 1

OS:Schedule:Day,
  {6505ebc5-ee86-48ff-9ed2-5d8899daede2}, !- Handle
  Schedule Day 3,                         !- Name
  ,                                       !- Schedule Type Limits Name
  ,                                       !- Interpolate to Timestep
  24,                                     !- Hour 1
  0,                                      !- Minute 1
  0;                                      !- Value Until Time 1

OS:Schedule:Day,
  {278888eb-2ed8-466d-9111-b726eed1f257}, !- Handle
  0700|1700|Warehouse|default|hoo Summer Design Day, !- Name
  {9aca401f-0789-41cf-a06a-089dcd4bc944}, !- Schedule Type Limits Name
  ,                                       !- Interpolate to Timestep
  24,                                     !- Hour 1
  0,                                      !- Minute 1
  1;                                      !- Value Until Time 1

OS:DefaultScheduleSet,
  {6b252e68-ce4d-47a0-9142-93568de6c4e9}, !- Handle
  Building Hours of Operation,            !- Name
  {e1cccaeb-5e82-44fc-9606-e384282d747a}, !- Hours of Operation Schedule Name
  ,                                       !- Number of People Schedule Name
  ,                                       !- People Activity Level Schedule Name
  ,                                       !- Lighting Schedule Name
  ,                                       !- Electric Equipment Schedule Name
  ,                                       !- Gas Equipment Schedule Name
  ,                                       !- Hot Water Equipment Schedule Name
  ,                                       !- Infiltration Schedule Name
  ,                                       !- Steam Equipment Schedule Name
  ;                                       !- Other Equipment Schedule Name

OS:ScheduleTypeLimits,
  {9aca401f-0789-41cf-a06a-089dcd4bc944}, !- Handle
  OnOff,                                  !- Name
  0,                                      !- Lower Limit Value {BasedOnField A4}
  1,                                      !- Upper Limit Value {BasedOnField A4}
  Discrete,                               !- Numeric Type
  Availability;                           !- Unit Type

OS:Schedule:Ruleset,
  {bcef4c99-fd43-4be8-a526-1470ea067406}, !- Handle
  0700|1700|Warehouse|default|occ,        !- Name
  {16aa0284-4f31-4183-a6ba-7242123bef97}, !- Schedule Type Limits Name
  {3e135036-8c5c-4af6-8d36-f4b0c2359e50}, !- Default Day Schedule Name
  {1b00cff9-f316-4ea1-9827-c000a254dd66}, !- Summer Design Day Schedule Name
  {c5226155-be86-4742-81ec-b34fe71acf58}; !- Winter Design Day Schedule Name

OS:ScheduleTypeLimits,
  {16aa0284-4f31-4183-a6ba-7242123bef97}, !- Handle
  Occupancy Schedule Type Limits,         !- Name
  0,                                      !- Lower Limit Value {BasedOnField A4}
  1,                                      !- Upper Limit Value {BasedOnField A4}
  Continuous,                             !- Numeric Type
  Dimensionless;                          !- Unit Type

OS:Schedule:Day,
  {3e135036-8c5c-4af6-8d36-f4b0c2359e50}, !- Handle
  0700|1700|Warehouse|default|occ |default, !- Name
  {16aa0284-4f31-4183-a6ba-7242123bef97}, !- Schedule Type Limits Name
  ,                                       !- Interpolate to Timestep
  7,                                      !- Hour 1
  0,                                      !- Minute 1
  0,                                      !- Value Until Time 1
  8,                                      !- Hour 2
  0,                                      !- Minute 2
  0.15,                                   !- Value Until Time 2
  9,                                      !- Hour 3
  0,                                      !- Minute 3
  0.7,                                    !- Value Until Time 3
  12,                                     !- Hour 4
  0,                                      !- Minute 4
  0.9,                                    !- Value Until Time 4
  13,                                     !- Hour 5
  0,                                      !- Minute 5
  0.5,                                    !- Value Until Time 5
  16,                                     !- Hour 6
  0,                                      !- Minute 6
  0.85,                                   !- Value Until Time 6
  17,                                     !- Hour 7
  0,                                      !- Minute 7
  0.2,                                    !- Value Until Time 7
  24,                                     !- Hour 8
  0,                                      !- Minute 8
  0;                                      !- Value Until Time 8

OS:Schedule:Day,
  {1b00cff9-f316-4ea1-9827-c000a254dd66}, !- Handle
  0700|1700|Warehouse|default|occ Summer Design Day, !- Name
  {16aa0284-4f31-4183-a6ba-7242123bef97}, !- Schedule Type Limits Name
  ,                                       !- Interpolate to Timestep
  7,                                      !- Hour 1
  0,                                      !- Minute 1
  0,                                      !- Value Until Time 1
  8,                                      !- Hour 2
  0,                                      !- Minute 2
  0.15,                                   !- Value Until Time 2
  16,                                     !- Hour 3
  0,                                      !- Minute 3
  1,                                      !- Value Until Time 3
  17,                                     !- Hour 4
  0,                                      !- Minute 4
  0.2,                                    !- Value Until Time 4
  24,                                     !- Hour 5
  0,                                      !- Minute 5
  0;                                      !- Value Until Time 5

OS:Schedule:Day,
  {c5226155-be86-4742-81ec-b34fe71acf58}, !- Handle
  0700|1700|Warehouse|default|occ Winter Design Day, !- Name
  {16aa0284-4f31-4183-a6ba-7242123bef97}, !- Schedule Type Limits Name
  ,                                       !- Interpolate to Timestep
  24,                                     !- Hour 1
  0,                                      !- Minute 1
  0;                                      !- Value Until Time 1

OS:Schedule:Rule,
  {34471d70-c8bd-4490-937c-d71b72de3674}, !- Handle
  0700|1700|Warehouse|default|occ |1/1-12/31|Sat Rule, !- Name
  {bcef4c99-fd43-4be8-a526-1470ea067406}, !- Schedule Ruleset Name
  0,                                      !- Rule Order
  {d3163ea1-c1db-4345-ad9c-d4441036a122}, !- Day Schedule Name
  ,                                       !- Apply Sunday
  ,                                       !- Apply Monday
  ,                                       !- Apply Tuesday
  ,                                       !- Apply Wednesday
  ,                                       !- Apply Thursday
  ,                                       !- Apply Friday
  Yes,                                    !- Apply Saturday
  ,                                       !- Apply Holiday
  DateRange,                              !- Date Specification Type
  1,                                      !- Start Month
  1,                                      !- Start Day
  12,                                     !- End Month
  31;                                     !- End Day

OS:Schedule:Day,
  {d3163ea1-c1db-4345-ad9c-d4441036a122}, !- Handle
  0700|1700|Warehouse|default|occ |1/1-12/31|Sat, !- Name
  {16aa0284-4f31-4183-a6ba-7242123bef97}, !- Schedule Type Limits Name
  ,                                       !- Interpolate to Timestep
  8,                                      !- Hour 1
  0,                                      !- Minute 1
  0,                                      !- Value Until Time 1
  12,                                     !- Hour 2
  0,                                      !- Minute 2
  0.2,                                    !- Value Until Time 2
  16,                                     !- Hour 3
  0,                                      !- Minute 3
  0.1,                                    !- Value Until Time 3
  24,                                     !- Hour 4
  0,                                      !- Minute 4
  0;                                      !- Value Until Time 4

OS:Schedule:Rule,
  {0a49423c-632e-40f1-abd6-7c83bfd0a10c}, !- Handle
  0700|1700|Warehouse|default|occ |1/1-12/31|Sun Rule, !- Name
  {bcef4c99-fd43-4be8-a526-1470ea067406}, !- Schedule Ruleset Name
  1,                                      !- Rule Order
  {98770bd9-d11c-49fa-9dad-c583adc86146}, !- Day Schedule Name
  Yes,                                    !- Apply Sunday
  ,                                       !- Apply Monday
  ,                                       !- Apply Tuesday
  ,                                       !- Apply Wednesday
  ,                                       !- Apply Thursday
  ,                                       !- Apply Friday
  ,                                       !- Apply Saturday
  ,                                       !- Apply Holiday
  DateRange,                              !- Date Specification Type
  1,                                      !- Start Month
  1,                                      !- Start Day
  12,                                     !- End Month
  31;                                     !- End Day

OS:Schedule:Day,
  {98770bd9-d11c-49fa-9dad-c583adc86146}, !- Handle
  0700|1700|Warehouse|default|occ |1/1-12/31|Sun, !- Name
  {16aa0284-4f31-4183-a6ba-7242123bef97}, !- Schedule Type Limits Name
  ,                                       !- Interpolate to Timestep
  24,                                     !- Hour 1
  0,                                      !- Minute 1
  0;                                      !- Value Until Time 1

OS:Schedule:Ruleset,
  {15443005-d697-4418-9290-92230bc97e3e}, !- Handle
  0700|1700|Warehouse|default|lighting,   !- Name
  {3c8ccf90-c909-4638-9caf-e879b95a6839}, !- Schedule Type Limits Name
  {11bb5e84-05f9-46ff-941a-702f6fa0e4eb}, !- Default Day Schedule Name
  {7ef2e559-7140-4ce8-9d88-3a4a768d5498}, !- Summer Design Day Schedule Name
  {859422e0-5727-4b57-a606-665aa7c2ffd0}; !- Winter Design Day Schedule Name

OS:ScheduleTypeLimits,
  {3c8ccf90-c909-4638-9caf-e879b95a6839}, !- Handle
  Lights Schedule Type Limits,            !- Name
  0,                                      !- Lower Limit Value {BasedOnField A4}
  1,                                      !- Upper Limit Value {BasedOnField A4}
  Continuous,                             !- Numeric Type
  Dimensionless;                          !- Unit Type

OS:Schedule:Day,
  {11bb5e84-05f9-46ff-941a-702f6fa0e4eb}, !- Handle
  0700|1700|Warehouse|default|lighting |default, !- Name
  {3c8ccf90-c909-4638-9caf-e879b95a6839}, !- Schedule Type Limits Name
  ,                                       !- Interpolate to Timestep
  7,                                      !- Hour 1
  0,                                      !- Minute 1
  0.1,                                    !- Value Until Time 1
  8,                                      !- Hour 2
  0,                                      !- Minute 2
  0.4,                                    !- Value Until Time 2
  9,                                      !- Hour 3
  0,                                      !- Minute 3
  0.7,                                    !- Value Until Time 3
  12,                                     !- Hour 4
  0,                                      !- Minute 4
  0.9,                                    !- Value Until Time 4
  13,                                     !- Hour 5
  0,                                      !- Minute 5
  0.8,                                    !- Value Until Time 5
  17,                                     !- Hour 6
  0,                                      !- Minute 6
  0.9,                                    !- Value Until Time 6
  18,                                     !- Hour 7
  0,                                      !- Minute 7
  0.3,                                    !- Value Until Time 7
  24,                                     !- Hour 8
  0,                                      !- Minute 8
  0.1;                                    !- Value Until Time 8

OS:Schedule:Day,
  {7ef2e559-7140-4ce8-9d88-3a4a768d5498}, !- Handle
  0700|1700|Warehouse|default|lighting Summer Design Day, !- Name
  {3c8ccf90-c909-4638-9caf-e879b95a6839}, !- Schedule Type Limits Name
  ,                                       !- Interpolate to Timestep
  7,                                      !- Hour 1
  0,                                      !- Minute 1
  0.1,                                    !- Value Until Time 1
  18,                                     !- Hour 2
  0,                                      !- Minute 2
  1,                                      !- Value Until Time 2
  24,                                     !- Hour 3
  0,                                      !- Minute 3
  0.1;                                    !- Value Until Time 3

OS:Schedule:Day,
  {859422e0-5727-4b57-a606-665aa7c2ffd0}, !- Handle
  0700|1700|Warehouse|default|lighting Winter Design Day, !- Name
  {3c8ccf90-c909-4638-9caf-e879b95a6839}, !- Schedule Type Limits Name
  ,                                       !- Interpolate to Timestep
  24,                                     !- Hour 1
  0,                                      !- Minute 1
  0.1;                                    !- Value Until Time 1

OS:Schedule:Rule,
  {9f2e163d-5f5b-4367-9352-719bdcc7165b}, !- Handle
  0700|1700|Warehouse|default|lighting |1/1-12/31|Sat Rule, !- Name
  {15443005-d697-4418-9290-92230bc97e3e}, !- Schedule Ruleset Name
  0,                                      !- Rule Order
  {ffe053e8-7e4e-4b45-92cb-43819342e6c3}, !- Day Schedule Name
  ,                                       !- Apply Sunday
  ,                                       !- Apply Monday
  ,                                       !- Apply Tuesday
  ,                                       !- Apply Wednesday
  ,                                       !- Apply Thursday
  ,                                       !- Apply Friday
  Yes,                                    !- Apply Saturday
  ,                                       !- Apply Holiday
  DateRange,                              !- Date Specification Type
  1,                                      !- Start Month
  1,                                      !- Start Day
  12,                                     !- End Month
  31;                                     !- End Day

OS:Schedule:Day,
  {ffe053e8-7e4e-4b45-92cb-43819342e6c3}, !- Handle
  0700|1700|Warehouse|default|lighting |1/1-12/31|Sat, !- Name
  {3c8ccf90-c909-4638-9caf-e879b95a6839}, !- Schedule Type Limits Name
  ,                                       !- Interpolate to Timestep
  9,                                      !- Hour 1
  0,                                      !- Minute 1
  0.1,                                    !- Value Until Time 1
  12,                                     !- Hour 2
  0,                                      !- Minute 2
  0.24,                                   !- Value Until Time 2
  24,                                     !- Hour 3
  0,                                      !- Minute 3
  0.1;                                    !- Value Until Time 3

OS:Schedule:Rule,
  {cb1115d8-7450-417e-86df-06d5cca5b907}, !- Handle
  0700|1700|Warehouse|default|lighting |1/1-12/31|Sun Rule, !- Name
  {15443005-d697-4418-9290-92230bc97e3e}, !- Schedule Ruleset Name
  1,                                      !- Rule Order
  {0a0c173c-3991-42d5-a365-551025884992}, !- Day Schedule Name
  Yes,                                    !- Apply Sunday
  ,                                       !- Apply Monday
  ,                                       !- Apply Tuesday
  ,                                       !- Apply Wednesday
  ,                                       !- Apply Thursday
  ,                                       !- Apply Friday
  ,                                       !- Apply Saturday
  ,                                       !- Apply Holiday
  DateRange,                              !- Date Specification Type
  1,                                      !- Start Month
  1,                                      !- Start Day
  12,                                     !- End Month
  31;                                     !- End Day

OS:Schedule:Day,
  {0a0c173c-3991-42d5-a365-551025884992}, !- Handle
  0700|1700|Warehouse|default|lighting |1/1-12/31|Sun, !- Name
  {3c8ccf90-c909-4638-9caf-e879b95a6839}, !- Schedule Type Limits Name
  ,                                       !- Interpolate to Timestep
  24,                                     !- Hour 1
  0,                                      !- Minute 1
  0.1;                                    !- Value Until Time 1

OS:Schedule:Ruleset,
  {acc42e71-acad-4c6b-bfd4-50baea68b849}, !- Handle
  0700|1700|Warehouse|default|thermal_ctrl, !- Name
  {9c83210e-7415-4391-a14a-25dc8c090fdd}, !- Schedule Type Limits Name
  {8d1bc6ca-63fd-4716-b896-9e235b43f12b}, !- Default Day Schedule Name
  {009073ff-c498-43e4-b828-2859b23fca1d}, !- Summer Design Day Schedule Name
  {bf1c1feb-1dfc-4c77-b5db-258a7cdaa8b5}; !- Winter Design Day Schedule Name

OS:ScheduleTypeLimits,
  {9c83210e-7415-4391-a14a-25dc8c090fdd}, !- Handle
  Dimensionless Schedule Type Limits,     !- Name
  ,                                       !- Lower Limit Value {BasedOnField A4}
  ,                                       !- Upper Limit Value {BasedOnField A4}
  Continuous,                             !- Numeric Type
  Dimensionless;                          !- Unit Type

OS:Schedule:Day,
  {8d1bc6ca-63fd-4716-b896-9e235b43f12b}, !- Handle
  0700|1700|Warehouse|default|thermal_ctrl |default, !- Name
  {9c83210e-7415-4391-a14a-25dc8c090fdd}, !- Schedule Type Limits Name
  ,                                       !- Interpolate to Timestep
  24,                                     !- Hour 1
  0,                                      !- Minute 1
  4;                                      !- Value Until Time 1

OS:Schedule:Day,
  {009073ff-c498-43e4-b828-2859b23fca1d}, !- Handle
  0700|1700|Warehouse|default|thermal_ctrl Summer Design Day, !- Name
  {9c83210e-7415-4391-a14a-25dc8c090fdd}, !- Schedule Type Limits Name
  ,                                       !- Interpolate to Timestep
  24,                                     !- Hour 1
  0,                                      !- Minute 1
  4;                                      !- Value Until Time 1

OS:Schedule:Day,
  {bf1c1feb-1dfc-4c77-b5db-258a7cdaa8b5}, !- Handle
  0700|1700|Warehouse|default|thermal_ctrl Winter Design Day, !- Name
  {9c83210e-7415-4391-a14a-25dc8c090fdd}, !- Schedule Type Limits Name
  ,                                       !- Interpolate to Timestep