
OS:Version,
  {57f9cad9-65df-48a1-8272-ab5426b4c2a0}, !- Handle
  1.6.0;                                  !- Version Identifier

OS:ClimateZones,
  {135edfab-17e7-40db-a436-27d385a8cd6d}, !- Handle
  ,                                       !- Active Institution
  ,                                       !- Active Year
  ASHRAE,                                 !- Climate Zone Institution Name 1
  ANSI/ASHRAE Standard 169,               !- Climate Zone Document Name 1
  2006,                                   !- Climate Zone Document Year 1
  ,                                       !- Climate Zone Value 1
  CEC,                                    !- Climate Zone Institution Name 2
  California Climate Zone Descriptions,   !- Climate Zone Document Name 2
  1995,                                   !- Climate Zone Document Year 2
  ;                                       !- Climate Zone Value 2

OS:YearDescription,
  {513d8dda-86cb-442a-b01c-1f7f0e0ac70e}; !- Handle

OS:RadianceParameters,
  {270a96f1-3c86-4b75-a667-cdf22790e2c8}, !- Handle
  1,                                      !- Accumulated Rays per Record
  0,                                      !- Direct Threshold
  1,                                      !- Direct Certainty
  1,                                      !- Direct Jitter
  1,                                      !- Direct Pretest
  6,                                      !- Ambient Bounces VMX
  2,                                      !- Ambient Bounces DMX
  4050,                                   !- Ambient Divisions VMX
  512,                                    !- Ambient Divisions DMX
  256,                                    !- Ambient Supersamples
  0.001,                                  !- Limit Weight VMX
  0.001,                                  !- Limit Weight DMX
  500,                                    !- Klems Sampling Density
  146;                                    !- Sky Discretization Resolution

OS:SimulationControl,
  {2c487a4c-bac9-4ac5-b669-1e49d9da7c2b}, !- Handle
  ,                                       !- Do Zone Sizing Calculation
  ,                                       !- Do System Sizing Calculation
  ,                                       !- Do Plant Sizing Calculation
  No,                                     !- Run Simulation for Sizing Periods
  ,                                       !- Run Simulation for Weather File Run Periods
  0.04,                                   !- Loads Convergence Tolerance Value
  ,                                       !- Temperature Convergence Tolerance Value {deltaC}
  ,                                       !- Solar Distribution
  ,                                       !- Maximum Number of Warmup Days
  2;                                      !- Minimum Number of Warmup Days

OS:Sizing:Parameters,
  {dde5af6f-7923-4600-a28a-7556673a0266}, !- Handle
  1.25,                                   !- Heating Sizing Factor
  1.15;                                   !- Cooling Sizing Factor

OS:ProgramControl,
  {05027a99-f2b3-4aeb-afc6-1425fbb4371d}; !- Handle

OS:Timestep,
  {4ebc9f1e-4707-402e-9844-67eb1ffbd522}, !- Handle
  2;                                      !- Number of Timesteps per Hour

OS:OutputControl:ReportingTolerances,
  {65797aa2-06a9-45fe-b69d-bc6e060399d3}; !- Handle

OS:ConvergenceLimits,
  {9fc11aba-8822-4f3d-970c-46391ba4040d}; !- Handle

OS:ShadowCalculation,
  {ca758bea-4416-4626-9bba-3d8795c79bd6}, !- Handle
  7,                                      !- Calculation Frequency
  15000;                                  !- Maximum Figures in Shadow Overlap Calculations

OS:SurfaceConvectionAlgorithm:Inside,
  {aaabfc36-718a-4ab0-b622-f186ebb45230}, !- Handle
  TARP;                                   !- Algorithm

OS:SurfaceConvectionAlgorithm:Outside,
  {9a0a9f6f-4bbd-4b12-a121-9492a1fcd7d6}, !- Handle
  DOE-2;                                  !- Algorithm

OS:HeatBalanceAlgorithm,
  {9d93e563-e1e0-46d7-9e39-d1c8aceb7212}, !- Handle
  ConductionTransferFunction,             !- Algorithm
  200;                                    !- Surface Temperature Upper Limit {F}

OS:ZoneAirHeatBalanceAlgorithm,
  {8520d93e-310f-4696-9bcd-36228bfdd743}, !- Handle
  AnalyticalSolution;                     !- Algorithm

OS:ZoneAirContaminantBalance,
  {eb5fc3ae-fb22-4160-8fcb-3e3b22b000d3}; !- Handle

OS:ZoneCapacitanceMultiplier:ResearchSpecial,
  {4020ce4f-5a7a-4849-8028-8305d7b751b1}, !- Handle
  ,                                       !- Temperature Capacity Multiplier
  ,                                       !- Humidity Capacity Multiplier
  ;                                       !- Carbon Dioxide Capacity Multiplier

OS:RunPeriod,
  {28df894d-6af9-4fb8-8f56-df1753344aa3}, !- Handle
  Run Period 1,                           !- Name
  1,                                      !- Begin Month
  1,                                      !- Begin Day of Month
  12,                                     !- End Month
  31,                                     !- End Day of Month
  ,                                       !- Use Weather File Holidays and Special Days
  ,                                       !- Use Weather File Daylight Saving Period
  ,                                       !- Apply Weekend Holiday Rule
  ,                                       !- Use Weather File Rain Indicators
  ,                                       !- Use Weather File Snow Indicators
  ;                                       !- Number of Times Runperiod to be Repeated

OS:Building,
  {bf305633-c5a1-4881-9edf-ca5e1a8e1274}, !- Handle
  Building 1,                             !- Name
  ,                                       !- Building Sector Type
  ,                                       !- North Axis {deg}
  ,                                       !- Nominal Floor to Floor Height {m}
  ,                                       !- Space Type Name
  ,                                       !- Default Construction Set Name
  {76ac2645-5a37-4b9b-aa2c-7072f33c548b}, !- Default Schedule Set Name
  ,                                       !- Standards Number of Stories
  ,                                       !- Standards Number of Above Ground Stories
  Warehouse;                              !- Standards Building Type

OS:LifeCycleCost:Parameters,
  {231cf8a0-f0e7-4251-a99f-11f0d464e661}, !- Handle
  FEMP,                                   !- Analysis Type
  ,                                       !- Discounting Convention
  ,                                       !- Inflation Approach
  ,                                       !- Real Discount Rate
  ,                                       !- Nominal Discount Rate
  ,                                       !- Inflation
  ,                                       !- Base Date Month
  ,                                       !- Base Date Year
  ,                                       !- Service Date Month
  ,                                       !- Service Date Year
  ,                                       !- Length of Study Period in Years
  ,                                       !- Tax Rate
  ,                                       !- Depreciation Method
  Yes;                                    !- Use NIST Fuel Escalation Rates

OS:Facility,
  {3ba8e45b-b833-44eb-a723-ea6c3946dc96}; !- Handle

OS:SpaceType,
  {19fdcc94-2611-4112-8bac-8b8d6daf03ba}, !- Handle
  Warehouse|BlendA|DOE Ref 2004|ASHRAE 169-2006-5A, !- Name
  {6d607a66-963a-4851-8a14-9ed02f86b9c4}, !- Default Construction Set Name
  ,                                       !- Default Schedule Set Name
  {bcb39eaf-cd2a-4908-af54-4d2a935d5f76}, !- Group Rendering Name
  {74e41da7-b36f-4e04-a818-d95fe240328d}, !- Design Specification Outdoor Air Object Name
  Warehouse,                              !- Standards Building Type
  BlendA;                                 !- Standards Space Type

OS:Rendering:Color,
  {bcb39eaf-cd2a-4908-af54-4d2a935d5f76}, !- Handle
  Rendering Color 1,                      !- Name
  41,                                     !- Rendering Red Value
  31,                                     !- Rendering Green Value
  169;                                    !- Rendering Blue Value

OS:SpaceType,
  {f1a0b596-e6a1-40c1-8bfe-eee5eb8b1824}, !- Handle
  Warehouse|Office|DOE Ref 2004|ASHRAE 169-2006-5A, !- Name
  {6d607a66-963a-4851-8a14-9ed02f86b9c4}, !- Default Construction Set Name
  {4b495b2d-34fe-4a62-92a7-e1bf27cb6c23}, !- Default Schedule Set Name
  {4a136032-454b-4668-b038-9a524540c612}, !- Group Rendering Name
  {5db9ba10-b6d3-4c44-9d3b-66eb527b4fc2}, !- Design Specification Outdoor Air Object Name
  Warehouse,                              !- Standards Building Type
  Office;                                 !- Standards Space Type

OS:Rendering:Color,
  {4a136032-454b-4668-b038-9a524540c612}, !- Handle
  Rendering Color 2,                      !- Name
  120,                                    !- Rendering Red Value
  230,                                    !- Rendering Green Value
  199;                                    !- Rendering Blue Value

OS:Schedule:Ruleset,
  {a2c80b87-529f-47a8-aeaa-2ae746dd62c2}, !- Handle
  0700|1700|Warehouse|default|hoo,        !- Name
  {1cbe0260-97cd-476b-8ad8-2ca2a858b047}, !- Schedule Type Limits Name
  {bb73d6b2-15db-4713-8000-1c364c1d2c96}, !- Default Day Schedule Name
  {57924c53-979a-4674-b977-8ae9594ef2e8}, !- Summer Design Day Schedule Name
  {e32167ce-ecf7-4eaa-9e9e-71f316e14f09}; !- Winter Design Day Schedule Name

OS:Schedule:Day,
  {bb73d6b2-15db-4713-8000-1c364c1d2c96}, !- Handle
  0700|1700|Warehouse|default|hoo Schedule Week Day, !- Name
  {1cbe0260-97cd-476b-8ad8-2ca2a858b047}, !- Schedule Type Limits Name
  ,                                       !- Interpolate to Timestep
  7,                                      !- Hour 1
  0,                                      !- Minute 1
  0,                                      !- Value Until Time 1
  17,                                     !- Hour 2
  0,                                      !- Minute 2
  1,                                      !- Value Until Time 2
  24,                                     !- Hour 3
  0,                                      !- Minute 3
  0;                                      !- Value Until Time 3

OS:Schedule:Day,
  {452e1195-5445-4bb3-9cad-0f9e254e7d97}, !- Handle
  Schedule Day 2,                         !- Name
  ,                                       !- Schedule Type Limits Name
  ,                                       !- Interpolate to Timestep
  24,                                     !- Hour 1
  0,                                      !- Minute 1
  0;                                      !- Value Until Time 1

OS:Schedule:Day,
  {e32167ce-ecf7-4eaa-9e9e-71f316e14f09}, !- Handle
  0700|1700|Warehouse|default|hoo Winter Design Day, !- Name
  {1cbe0260-97cd-476b-8ad8-2ca2a858b047}, !- Schedule Type Limits Name
  ,                                       !- Interpolate to Timestep
  24,                                     !- Hour 1
  0,                                      !- Minute 1
  0;                                      !- Value Until Time 1

OS:Schedule:Day,
  {023da487-04c6-45a9-8981-9ddff9c7feb2}, !- Handle
  Schedule Day 3,                         !- Name
  ,                                       !- Schedule Type Limits Name
  ,                                       !- Interpolate to Timestep
  24,                                     !- Hour 1
  0,                                      !- Minute 1
  0;                                      !- Value Until Time 1

OS:Schedule:Day,
  {57924c53-979a-4674-b977-8ae9594ef2e8}, !- Handle
  0700|1700|Warehouse|default|hoo Summer Design Day, !- Name
  {1cbe0260-97cd-476b-8ad8-2ca2a858b047}, !- Schedule Type Limits Name
  ,                                       !- Interpolate to Timestep
  24,                                     !- Hour 1
  0,                                      !- Minute 1
  1;                                      !- Value Until Time 1

OS:DefaultScheduleSet,
  {76ac2645-5a37-4b9b-aa2c-7072f33c548b}, !- Handle
  Building Hours of Operation,            !- Name
  {a2c80b87-529f-47a8-aeaa-2ae746dd62c2}, !- Hours of Operation Schedule Name
  ,                                       !- Number of People Schedule Name
  ,                                       !- People Activity Level Schedule Name
  ,                                       !- Lighting Schedule Name
  ,                                       !- Electric Equipment Schedule Name
  ,                                       !- Gas Equipment Schedule Name
  ,                                       !- Hot Water Equipment Schedule Name
  ,                                       !- Infiltration Schedule Name
  ,                                       !- Steam Equipment Schedule Name
  ;                                       !- Other Equipment Schedule Name

OS:ScheduleTypeLimits,
  {1cbe0260-97cd-476b-8ad8-2ca2a858b047}, !- Handle
  OnOff,                                  !- Name
  0,                                      !- Lower Limit Value {BasedOnField A4}
  1,                                      !- Upper Limit Value {BasedOnField A4}
  Discrete,                               !- Numeric Type
  Availability;                           !- Unit Type

OS:Schedule:Ruleset,
  {8907a54c-88c7-401b-a873-7b4424984303}, !- Handle
  0700|1700|Warehouse|Bulk|htg_setpoint,  !- Name
  {6ecc69fb-c15a-4fc5-acdd-279768eec523}, !- Schedule Type Limits Name
  {6d708627-77bd-40da-8b54-fe57fbe40d60}, !- Default Day Schedule Name
  {b4dfc7e7-e1b8-4628-862f-6698954233a8}, !- Summer Design Day Schedule Name
  {c66b1a48-fb6e-4ef2-8a87-7dbbca1e69dc}; !- Winter Design Day Schedule Name

OS:ScheduleTypeLimits,
  {6ecc69fb-c15a-4fc5-acdd-279768eec523}, !- Handle
  Thermostat Heating Setpoint Schedule Type Limits, !- Name
  0,                                      !- Lower Limit Value {BasedOnField A4}
  100,                                    !- Upper Limit Value {BasedOnField A4}
  Continuous,                             !- Numeric Type
  Temperature;                            !- Unit Type

OS:Schedule:Day,
  {6d708627-77bd-40da-8b54-fe57fbe40d60}, !- Handle
  0700|1700|Warehouse|Bulk|htg_setpoint |default, !- Name
  {6ecc69fb-c15a-4fc5-acdd-279768eec523}, !- Schedule Type Limits Name
  ,                                       !- Interpolate to Timestep
  24,                                     !- Hour 1
  0,                                      !- Minute 1
  7.20000000000005;                       !- Value Until Time 1

OS:Schedule:Day,
  {b4dfc7e7-e1b8-4628-862f-6698954233a8}, !- Handle
  0700|1700|Warehouse|Bulk|htg_setpoint Summer Design Day, !- Name
  {6ecc69fb-c15a-4fc5-acdd-279768eec523}, !- Schedule Type Limits Name
  ,                                       !- Interpolate to Timestep
  24,                                     !- Hour 1
  0,                                      !- Minute 1
  7.20000000000005;                       !- Value Until Time 1

OS:Schedule:Day,
  {c66b1a48-fb6e-4ef2-8a87-7dbbca1e69dc}, !- Handle
  0700|1700|Warehouse|Bulk|htg_setpoint Winter Design Day, !- Name
  {6ecc69fb-c15a-4fc5-acdd-279768eec523}, !- Schedule Type Limits Name
  ,                                       !- Interpolate to Timestep
  24,                                     !- Hour 1
  0,                                      !- Minute 1
  7.20000000000005;                       !- Value Until Time 1

OS:Schedule:Ruleset,
  {7e9f5c93-4b94-48fe-b272-9a568ab91679}, !- Handle
  0700|1700|Warehouse|default|thermal_ctrl, !- Name
  {4b3ba36d-5b10-4b23-9f39-a55f643d9916}, !- Schedule Type Limits Name
  {df71f560-fa20-4c8a-98c4-338d0e21d68c}, !- Default Day Schedule Name
  {e50da1c0-a588-42a8-8628-ba9269fe2799}, !- Summer Design Day Schedule Name
  {5caac0d9-8d8c-4b99-bdc6-58e802d7b2e8}; !- Winter Design Day Schedule Name

OS:ScheduleTypeLimits,
  {4b3ba36d-5b10-4b23-9f39-a55f643d9916}, !- Handle
  Dimensionless Schedule Type Limits,     !- Name
  ,                                       !- Lower Limit Value {BasedOnField A4}
  ,                                       !- Upper Limit Value {BasedOnField A4}
  Continuous,                             !- Numeric Type
  Dimensionless;                          !- Unit Type

OS:Schedule:Day,
  {df71f560-fa20-4c8a-98c4-338d0e21d68c}, !- Handle
  0700|1700|Warehouse|default|thermal_ctrl |default, !- Name
  {4b3ba36d-5b10-4b23-9f39-a55f643d9916}, !- Schedule Type Limits Name
  ,                                       !- Interpolate to Timestep
  24,                                     !- Hour 1
  0,                                      !- Minute 1
  4;                                      !- Value Until Time 1

OS:Schedule:Day,
  {e50da1c0-a588-42a8-8628-ba9269fe2799}, !- Handle
  0700|1700|Warehouse|default|thermal_ctrl Summer Design Day, !- Name
  {4b3ba36d-5b10-4b23-9f39-a55f643d9916}, !- Schedule Type Limits Name
  ,                                       !- Interpolate to Timestep
  24,                                     !- Hour 1
  0,                                      !- Minute 1
  4;                                      !- Value Until Time 1

OS:Schedule:Day,
  {5caac0d9-8d8c-4b99-bdc6-58e802d7b2e8}, !- Handle
  0700|1700|Warehouse|default|thermal_ctrl Winter Design Day, !- Name
  {4b3ba36d-5b10-4b23-9f39-a55f643d9916}, !- Schedule Type Limits Name
  ,                                       !- Interpolate to Timestep
  24,                                     !- Hour 1
  0,                                      !- Minute 1
  4;                                      !- Value Until Time 1

OS:Schedule:Ruleset,
  {911f9b8c-e8eb-4a7a-8bad-acf6cd43a7ec}, !- Handle
  0700|1700|Warehouse|default|lighting,   !- Name
  {f0857ca5-72d4-47ff-9c60-54f95b23da72}, !- Schedule Type Limits Name
  {b8906732-543c-4bdc-8365-57138100de0e}, !- Default Day Schedule Name
  {c931817b-3b91-40e4-983b-257c0e199f59}, !- Summer Design Day Schedule Name
  {4bda1370-5eeb-4fe6-8613-2b5eda412343}; !- Winter Design Day Schedule Name

OS:ScheduleTypeLimits,
  {f0857ca5-72d4-47ff-9c60-54f95b23da72}, !- Handle
  Lights Schedule Type Limits,            !- Name
  0,                                      !- Lower Limit Value {BasedOnField A4}
  1,                                      !- Upper Limit Value {BasedOnField A4}
  Continuous,                             !- Numeric Type
  Dimensionless;                          !- Unit Type

OS:Schedule:Day,
  {b8906732-543c-4bdc-8365-57138100de0e}, !- Handle
  0700|1700|Warehouse|default|lighting |default, !- Name
  {f0857ca5-72d4-47ff-9c60-54f95b23da72}, !- Schedule Type Limits Name
  ,                                       !- Interpolate to Timestep
  7,                                      !- Hour 1
  0,                                      !- Minute 1
  0.1,                                    !- Value Until Time 1
  8,                                      !- Hour 2
  0,                                      !- Minute 2
  0.4,                                    !- Value Until Time 2
  9,                                      !- Hour 3
  0,                                      !- Minute 3
  0.7,                                    !- Value Until Time 3
  12,                                     !- Hour 4
  0,                                      !- Minute 4
  0.9,                                    !- Value Until Time 4
  13,                                     !- Hour 5
  0,                                      !- Minute 5
  0.8,                                    !- Value Until Time 5
  17,                                     !- Hour 6
  0,                                      !- Minute 6
  0.9,                                    !- Value Until Time 6
  18,                                     !- Hour 7
  0,                                      !- Minute 7
  0.3,                                    !- Value Until Time 7
  24,                                     !- Hour 8
  0,                                      !- Minute 8
  0.1;                                    !- Value Until Time 8

OS:Schedule:Day,
  {c931817b-3b91-40e4-983b-257c0e199f59}, !- Handle
  0700|1700|Warehouse|default|lighting Summer Design Day, !- Name
  {f0857ca5-72d4-47ff-9c60-54f95b23da72}, !- Schedule Type Limits Name
  ,                                       !- Interpolate to Timestep
  7,                                      !- Hour 1
  0,                                      !- Minute 1
  0.1,                                    !- Value Until Time 1
  18,                                     !- Hour 2
  0,                                      !- Minute 2
  1,                                      !- Value Until Time 2
  24,                                     !- Hour 3
  0,                                      !- Minute 3
  0.1;                                    !- Value Until Time 3

OS:Schedule:Day,
  {4bda1370-5eeb-4fe6-8613-2b5eda412343}, !- Handle
  0700|1700|Warehouse|default|lighting Winter Design Day, !- Name
  {f0857ca5-72d4-47ff-9c60-54f95b23da72}, !- Schedule Type Limits Name
  ,                                       !- Interpolate to Timestep
  24,                                     !- Hour 1
  0,                                      !- Minute 1
  0.1;                                    !- Value Until Time 1

OS:Schedule:Rule,
  {54c7a05e-de78-4899-bcf9-b7bd65587488}, !- Handle
  0700|1700|Warehouse|default|lighting |1/1-12/31|Sat Rule, !- Name
  {911f9b8c-e8eb-4a7a-8bad-acf6cd43a7ec}, !- Schedule Ruleset Name
  0,                                      !- Rule Order
  {10bccfde-4f3a-43a3-aacc-646bdc0b72d3}, !- Day Schedule Name
  ,                                       !- Apply Sunday
  ,                                       !- Apply Monday
  ,                                       !- Apply Tuesday
  ,                                       !- Apply Wednesday
  ,                                       !- Apply Thursday
  ,                                       !- Apply Friday
  Yes,                                    !- Apply Saturday
  ,                                       !- Apply Holiday
  DateRange,                              !- Date Specification Type
  1,                                      !- Start Month
  1,                                      !- Start Day
  12,                                     !- End Month
  31;                                     !- End Day

OS:Schedule:Day,
  {10bccfde-4f3a-43a3-aacc-646bdc0b72d3}, !- Handle
  0700|1700|Warehouse|default|lighting |1/1-12/31|Sat, !- Name
  {f0857ca5-72d4-47ff-9c60-54f95b23da72}, !- Schedule Type Limits Name
  ,                                       !- Interpolate to Timestep
  9,                                      !- Hour 1
  0,                                      !- Minute 1
  0.1,                                    !- Value Until Time 1
  12,                                     !- Hour 2
  0,                                      !- Minute 2
  0.24,                                   !- Value Until Time 2
  24,                                     !- Hour 3
  0,                                      !- Minute 3
  0.1;                                    !- Value Until Time 3

OS:Schedule:Rule,
  {902fd1e6-4d23-4700-ad02-4d0c7b65eb57}, !- Handle
  0700|1700|Warehouse|default|lighting |1/1-12/31|Sun Rule, !- Name
  {911f9b8c-e8eb-4a7a-8bad-acf6cd43a7ec}, !- Schedule Ruleset Name
  1,                                      !- Rule Order
  {ab6adb7f-43eb-463b-986b-a55d7922596b}, !- Day Schedule Name
  Yes,                                    !- Apply Sunday
  ,                                       !- Apply Monday
  ,                                       !- Apply Tuesday
  ,                                       !- Apply Wednesday
  ,                                       !- Apply Thursday
  ,                                       !- Apply Friday
  ,                                       !- Apply Saturday
  ,                                       !- Apply Holiday
  DateRange,                              !- Date Specification Type
  1,                                      !- Start Month
  1,                                      !- Start Day
  12,                                     !- End Month
  31;                                     !- End Day

OS:Schedule:Day,
  {ab6adb7f-43eb-463b-986b-a55d7922596b}, !- Handle
  0700|1700|Warehouse|default|lighting |1/1-12/31|Sun, !- Name
  {f0857ca5-72d4-47ff-9c60-54f95b23da72}, !- Schedule Type Limits Name
  ,                                       !- Interpolate to Timestep
  24,                                     !- Hour 1
  0,                                      !- Minute 1
  0.1;                                    !- Value Until Time 1

OS:Schedule:Ruleset,
  {b8fb4903-c102-40a3-95a8-ea11385e5c4f}, !- Handle
  0700|1700|Warehouse|default|elevator,   !- Name
  {f9d91737-241a-43f9-9559-6f46fae5f7db}, !- Schedule Type Limits Name
  {a75e7244-dd4b-48a2-9423-e9157b78f06f}, !- Default Day Schedule Name
  {b69cd4db-05f4-4c12-b2e4-01f4523b38e5}, !- Summer Design Day Schedule Name
  {c1e18a47-66a8-4ad2-9af5-3dca4d7a2979}; !- Winter Design Day Schedule Name

OS:ScheduleTypeLimits,
  {f9d91737-241a-43f9-9559-6f46fae5f7db}, !- Handle
  Elevators Schedule Type Limits,         !- Name
  0,                                      !- Lower Limit Value {BasedOnField A4}
  1,                                      !- Upper Limit Value {BasedOnField A4}
  Continuous,                             !- Numeric Type
  Dimensionless;                          !- Unit Type

OS:Schedule:Day,
  {a75e7244-dd4b-48a2-9423-e9157b78f06f}, !- Handle
  0700|1700|Warehouse|default|elevator |default, !- Name
  {f9d91737-241a-43f9-9559-6f46fae5f7db}, !- Schedule Type Limits Name
  ,                                       !- Interpolate to Timestep
  7,                                      !- Hour 1
  0,                                      !- Minute 1
  0,                                      !- Value Until Time 1
  17,                                     !- Hour 2
  0,                                      !- Minute 2
  1,                                      !- Value Until Time 2
  24,                                     !- Hour 3
  0,                                      !- Minute 3
  0;                                      !- Value Until Time 3

OS:Schedule:Day,
  {b69cd4db-05f4-4c12-b2e4-01f4523b38e5}, !- Handle
  0700|1700|Warehouse|default|elevator Summer Design Day, !- Name
  {f9d91737-241a-43f9-9559-6f46fae5f7db}, !- Schedule Type Limits Name
  ,                                       !- Interpolate to Timestep
  7,                                      !- Hour 1
  0,                                      !- Minute 1
  0,                                      !- Value Until Time 1
  17,                                     !- Hour 2
  0,                                      !- Minute 2
  1,                                      !- Value Until Time 2
  24,                                     !- Hour 3
  0,                                      !- Minute 3
  0;                                      !- Value Until Time 3

OS:Schedule:Day,
  {c1e18a47-66a8-4ad2-9af5-3dca4d7a2979}, !- Handle
  0700|1700|Warehouse|default|elevator Winter Design Day, !- Name
  {f9d91737-241a-43f9-9559-6f46fae5f7db}, !- Schedule Type Limits Name
  ,                                       !- Interpolate to Timestep
  7,                                      !- Hour 1
  0,                                      !- Minute 1
  0,                                      !- Value Until Time 1
  17,                                     !- Hour 2
  0,                                      !- Minute 2
  1,                                      !- Value Until Time 2
  24,                                     !- Hour 3
  0,                                      !- Minute 3
  0;                                      !- Value Until Time 3

OS:Schedule:Ruleset,
  {8058cf27-0af6-46b1-8bc8-5e9be2369f90}, !- Handle
  0700|1700|Warehouse|default|air_velocity, !- Name
  {4b3ba36d-5b10-4b23-9f39-a55f643d9916}, !- Schedule Type Limits Name
  {ea93a258-b6ae-40fe-8d7f-85425d1547b6}, !- Default Day Schedule Name
  {9d63d574-9b0f-4f03-bed6-81c591f7efb1}, !- Summer Design Day Schedule Name
  {c4e865ad-9b9a-45b6-8b9c-2028b58c816f}; !- Winter Design Day Schedule Name

OS:Schedule:Day,
  {ea93a258-b6ae-40fe-8d7f-85425d1547b6}, !- Handle
  0700|1700|Warehouse|default|air_velocity |default, !- Name
  {4b3ba36d-5b10-4b23-9f39-a55f643d9916}, !- Schedule Type Limits Name
  ,                                       !- Interpolate to Timestep
  24,                                     !- Hour 1
  0,                                      !- Minute 1
  0.200152;                               !- Value Until Time 1

OS:Schedule:Day,
  {9d63d574-9b0f-4f03-bed6-81c591f7efb1}, !- Handle
  0700|1700|Warehouse|default|air_velocity Summer Design Day, !- Name
  {4b3ba36d-5b10-4b23-9f39-a55f643d9916}, !- Schedule Type Limits Name
  ,                                       !- Interpolate to Timestep
  24,                                     !- Hour 1
  0,                                      !- Minute 1
  0.200152;                               !- Value Until Time 1

OS:Schedule:Day,
  {c4e865ad-9b9a-45b6-8b9c-2028b58c816f}, !- Handle
  0700|1700|Warehouse|default|air_velocity Winter Design Day, !- Name
  {4b3ba36d-5b10-4b23-9f39-a55f643d9916}, !- Schedule Type Limits Name
  ,                                       !- Interpolate to Timestep
  24,                                     !- Hour 1
  0,                                      !- Minute 1
  0.200152;                               !- Value Until Time 1

OS:Schedule:Ruleset,
  {0f9939bc-fa52-4c93-899c-867fbc8aa05b}, !- Handle
  0700|1700|Warehouse|default|elec_equip, !- Name
  {64732ffb-d1f1-44f4-89fb-5dc0a4823d20}, !- Schedule Type Limits Name
  {c1bcc4aa-f4da-4a53-95ba-8fe19e708cca}, !- Default Day Schedule Name