
OS:Version,
  {4de6c4d5-ff5a-4713-84e4-b8677053cfe0}, !- Handle
  1.5.5;                                  !- Version Identifier

OS:ClimateZones,
  {135edfab-17e7-40db-a436-27d385a8cd6d}, !- Handle
  ,                                       !- Active Institution
  ,                                       !- Active Year
  ASHRAE,                                 !- Climate Zone Institution Name 1
  ANSI/ASHRAE Standard 169,               !- Climate Zone Document Name 1
  2006,                                   !- Climate Zone Document Year 1
  ,                                       !- Climate Zone Value 1
  CEC,                                    !- Climate Zone Institution Name 2
  California Climate Zone Descriptions,   !- Climate Zone Document Name 2
  1995,                                   !- Climate Zone Document Year 2
  ;                                       !- Climate Zone Value 2

OS:YearDescription,
  {513d8dda-86cb-442a-b01c-1f7f0e0ac70e}; !- Handle

OS:RadianceParameters,
  {270a96f1-3c86-4b75-a667-cdf22790e2c8}, !- Handle
  1,                                      !- Accumulated Rays per Record
  0,                                      !- Direct Threshold
  1,                                      !- Direct Certainty
  1,                                      !- Direct Jitter
  1,                                      !- Direct Pretest
  6,                                      !- Ambient Bounces VMX
  2,                                      !- Ambient Bounces DMX
  4050,                                   !- Ambient Divisions VMX
  512,                                    !- Ambient Divisions DMX
  256,                                    !- Ambient Supersamples
  0.001,                                  !- Limit Weight VMX
  0.001,                                  !- Limit Weight DMX
  500,                                    !- Klems Sampling Density
  146;                                    !- Sky Discretization Resolution

OS:SimulationControl,
  {2c487a4c-bac9-4ac5-b669-1e49d9da7c2b}, !- Handle
  ,                                       !- Do Zone Sizing Calculation
  ,                                       !- Do System Sizing Calculation
  ,                                       !- Do Plant Sizing Calculation
  No,                                     !- Run Simulation for Sizing Periods
  ,                                       !- Run Simulation for Weather File Run Periods
  0.04,                                   !- Loads Convergence Tolerance Value
  ,                                       !- Temperature Convergence Tolerance Value {deltaC}
  ,                                       !- Solar Distribution
  ,                                       !- Maximum Number of Warmup Days
  2;                                      !- Minimum Number of Warmup Days

OS:Sizing:Parameters,
  {dde5af6f-7923-4600-a28a-7556673a0266}, !- Handle
  1.25,                                   !- Heating Sizing Factor
  1.15;                                   !- Cooling Sizing Factor

OS:ProgramControl,
  {05027a99-f2b3-4aeb-afc6-1425fbb4371d}; !- Handle

OS:Timestep,
  {4ebc9f1e-4707-402e-9844-67eb1ffbd522}, !- Handle
  2;                                      !- Number of Timesteps per Hour

OS:OutputControl:ReportingTolerances,
  {65797aa2-06a9-45fe-b69d-bc6e060399d3}; !- Handle

OS:ConvergenceLimits,
  {9fc11aba-8822-4f3d-970c-46391ba4040d}; !- Handle

OS:ShadowCalculation,
  {ca758bea-4416-4626-9bba-3d8795c79bd6}, !- Handle
  7,                                      !- Calculation Frequency
  15000;                                  !- Maximum Figures in Shadow Overlap Calculations

OS:SurfaceConvectionAlgorithm:Inside,
  {aaabfc36-718a-4ab0-b622-f186ebb45230}, !- Handle
  TARP;                                   !- Algorithm

OS:SurfaceConvectionAlgorithm:Outside,
  {9a0a9f6f-4bbd-4b12-a121-9492a1fcd7d6}, !- Handle
  DOE-2;                                  !- Algorithm

OS:HeatBalanceAlgorithm,
  {9d93e563-e1e0-46d7-9e39-d1c8aceb7212}, !- Handle
  ConductionTransferFunction,             !- Algorithm
  200;                                    !- Surface Temperature Upper Limit {F}

OS:ZoneAirHeatBalanceAlgorithm,
  {8520d93e-310f-4696-9bcd-36228bfdd743}, !- Handle
  AnalyticalSolution;                     !- Algorithm

OS:ZoneAirContaminantBalance,
  {eb5fc3ae-fb22-4160-8fcb-3e3b22b000d3}; !- Handle

OS:ZoneCapacitanceMultiplier:ResearchSpecial,
  {4020ce4f-5a7a-4849-8028-8305d7b751b1}, !- Handle
  ,                                       !- Temperature Capacity Multiplier
  ,                                       !- Humidity Capacity Multiplier
  ;                                       !- Carbon Dioxide Capacity Multiplier

OS:RunPeriod,
  {28df894d-6af9-4fb8-8f56-df1753344aa3}, !- Handle
  Run Period 1,                           !- Name
  1,                                      !- Begin Month
  1,                                      !- Begin Day of Month
  12,                                     !- End Month
  31,                                     !- End Day of Month
  ,                                       !- Use Weather File Holidays and Special Days
  ,                                       !- Use Weather File Daylight Saving Period
  ,                                       !- Apply Weekend Holiday Rule
  ,                                       !- Use Weather File Rain Indicators
  ,                                       !- Use Weather File Snow Indicators
  ;                                       !- Number of Times Runperiod to be Repeated

OS:Building,
  {bf305633-c5a1-4881-9edf-ca5e1a8e1274}, !- Handle
  Building 1,                             !- Name
  ,                                       !- Building Sector Type
  ,                                       !- North Axis {deg}
  ,                                       !- Nominal Floor to Floor Height {m}
  ,                                       !- Space Type Name
  ,                                       !- Default Construction Set Name
  {ac71bd08-9c3a-43eb-af92-3173a356a974}, !- Default Schedule Set Name
  ,                                       !- Standards Number of Stories
  ,                                       !- Standards Number of Above Ground Stories
  Warehouse;                              !- Standards Building Type

OS:LifeCycleCost:Parameters,
  {231cf8a0-f0e7-4251-a99f-11f0d464e661}, !- Handle
  FEMP,                                   !- Analysis Type
  ,                                       !- Discounting Convention
  ,                                       !- Inflation Approach
  ,                                       !- Real Discount Rate
  ,                                       !- Nominal Discount Rate
  ,                                       !- Inflation
  ,                                       !- Base Date Month
  ,                                       !- Base Date Year
  ,                                       !- Service Date Month
  ,                                       !- Service Date Year
  ,                                       !- Length of Study Period in Years
  ,                                       !- Tax Rate
  ,                                       !- Depreciation Method
  Yes;                                    !- Use NIST Fuel Escalation Rates

OS:Facility,
  {3ba8e45b-b833-44eb-a723-ea6c3946dc96}; !- Handle

OS:SpaceType,
  {3c448aa2-68ac-4a67-878d-23a9f49c6c08}, !- Handle
  Warehouse|BlendA|DOE Ref 2004|ASHRAE 169-2006-5A, !- Name
  {4b522d66-9798-4d28-9ead-b03bdd313365}, !- Default Construction Set Name
  ,                                       !- Default Schedule Set Name
  {06317528-26ee-4aac-a2a3-227097d8fddb}, !- Group Rendering Name
  {d6cad292-63de-4db3-9263-2a30c3a08a79}, !- Design Specification Outdoor Air Object Name
  Warehouse,                              !- Standards Building Type
  BlendA;                                 !- Standards Space Type

OS:Rendering:Color,
  {06317528-26ee-4aac-a2a3-227097d8fddb}, !- Handle
  Rendering Color 1,                      !- Name
  41,                                     !- Rendering Red Value
  31,                                     !- Rendering Green Value
  169;                                    !- Rendering Blue Value

OS:SpaceType,
  {b712a4ae-ccd6-4542-93b1-ea6ec8bf3d54}, !- Handle
  Warehouse|Office|DOE Ref 2004|ASHRAE 169-2006-5A, !- Name
  {4b522d66-9798-4d28-9ead-b03bdd313365}, !- Default Construction Set Name
  {64e72304-df5f-4e74-bcd7-ce823eb4cd48}, !- Default Schedule Set Name
  {d7dc8b09-1f34-4c1c-912a-6ef132f74a85}, !- Group Rendering Name
  {519c7aff-78da-46cf-aec0-738acccf3c8e}, !- Design Specification Outdoor Air Object Name
  Warehouse,                              !- Standards Building Type
  Office;                                 !- Standards Space Type

OS:Rendering:Color,
  {d7dc8b09-1f34-4c1c-912a-6ef132f74a85}, !- Handle
  Rendering Color 2,                      !- Name
  120,                                    !- Rendering Red Value
  230,                                    !- Rendering Green Value
  199;                                    !- Rendering Blue Value

OS:Schedule:Ruleset,
  {57b12c83-c4e0-4ac4-b2b2-198f8693b367}, !- Handle
  0700|1700|Warehouse|default|hoo,        !- Name
  {4080a9ac-4714-4f72-b930-88081623c44f}, !- Schedule Type Limits Name
  {f7504230-796a-4f4f-b80a-5b843279499a}, !- Default Day Schedule Name
  {eab2a364-452d-4bbd-9581-fc46282f9374}, !- Summer Design Day Schedule Name
  {945e7d06-c310-4103-9d0c-c930235c29a3}; !- Winter Design Day Schedule Name

OS:Schedule:Day,
  {f7504230-796a-4f4f-b80a-5b843279499a}, !- Handle
  0700|1700|Warehouse|default|hoo Schedule Week Day, !- Name
  {4080a9ac-4714-4f72-b930-88081623c44f}, !- Schedule Type Limits Name
  ,                                       !- Interpolate to Timestep
  7,                                      !- Hour 1
  0,                                      !- Minute 1
  0,                                      !- Value Until Time 1
  17,                                     !- Hour 2
  0,                                      !- Minute 2
  1,                                      !- Value Until Time 2
  24,                                     !- Hour 3
  0,                                      !- Minute 3
  0;                                      !- Value Until Time 3

OS:Schedule:Day,
  {5b1ecd43-e5d0-4fea-a02c-e7d8ed540d3a}, !- Handle
  Schedule Day 2,                         !- Name
  ,                                       !- Schedule Type Limits Name
  ,                                       !- Interpolate to Timestep
  24,                                     !- Hour 1
  0,                                      !- Minute 1
  0;                                      !- Value Until Time 1

OS:Schedule:Day,
  {945e7d06-c310-4103-9d0c-c930235c29a3}, !- Handle
  0700|1700|Warehouse|default|hoo Winter Design Day, !- Name
  {4080a9ac-4714-4f72-b930-88081623c44f}, !- Schedule Type Limits Name
  ,                                       !- Interpolate to Timestep
  24,                                     !- Hour 1
  0,                                      !- Minute 1
  0;                                      !- Value Until Time 1

OS:Schedule:Day,
  {a0761d19-ffc4-4a5e-92b2-77034937ba1e}, !- Handle
  Schedule Day 3,                         !- Name
  ,                                       !- Schedule Type Limits Name
  ,                                       !- Interpolate to Timestep
  24,                                     !- Hour 1
  0,                                      !- Minute 1
  0;                                      !- Value Until Time 1

OS:Schedule:Day,
  {eab2a364-452d-4bbd-9581-fc46282f9374}, !- Handle
  0700|1700|Warehouse|default|hoo Summer Design Day, !- Name
  {4080a9ac-4714-4f72-b930-88081623c44f}, !- Schedule Type Limits Name
  ,                                       !- Interpolate to Timestep
  24,                                     !- Hour 1
  0,                                      !- Minute 1
  1;                                      !- Value Until Time 1

OS:DefaultScheduleSet,
  {ac71bd08-9c3a-43eb-af92-3173a356a974}, !- Handle
  Building Hours of Operation,            !- Name
  {57b12c83-c4e0-4ac4-b2b2-198f8693b367}, !- Hours of Operation Schedule Name
  ,                                       !- Number of People Schedule Name
  ,                                       !- People Activity Level Schedule Name
  ,                                       !- Lighting Schedule Name
  ,                                       !- Electric Equipment Schedule Name
  ,                                       !- Gas Equipment Schedule Name
  ,                                       !- Hot Water Equipment Schedule Name
  ,                                       !- Infiltration Schedule Name
  ,                                       !- Steam Equipment Schedule Name
  ;                                       !- Other Equipment Schedule Name

OS:ScheduleTypeLimits,
  {4080a9ac-4714-4f72-b930-88081623c44f}, !- Handle
  OnOff,                                  !- Name
  0,                                      !- Lower Limit Value {BasedOnField A4}
  1,                                      !- Upper Limit Value {BasedOnField A4}
  Discrete,                               !- Numeric Type
  Availability;                           !- Unit Type

OS:Schedule:Ruleset,
  {5ec34ba4-e45c-4794-89ef-0294d8b2d89b}, !- Handle
  0700|1700|Warehouse|default|occ,        !- Name
  {db397755-fed2-4558-8cfa-3bbc0c7ceb61}, !- Schedule Type Limits Name
  {3fe9c6fc-641b-4eee-8acb-2ac9c69adf45}, !- Default Day Schedule Name
  {bbac7d2e-2cbd-4f5f-9b36-1376002e0d2e}, !- Summer Design Day Schedule Name
  {a3b5c83b-58ad-42cd-ac1d-af6fa118035a}; !- Winter Design Day Schedule Name

OS:ScheduleTypeLimits,
  {db397755-fed2-4558-8cfa-3bbc0c7ceb61}, !- Handle
  Occupancy Schedule Type Limits,         !- Name
  0,                                      !- Lower Limit Value {BasedOnField A4}
  1,                                      !- Upper Limit Value {BasedOnField A4}
  Continuous,                             !- Numeric Type
  Dimensionless;                          !- Unit Type

OS:Schedule:Day,
  {3fe9c6fc-641b-4eee-8acb-2ac9c69adf45}, !- Handle
  0700|1700|Warehouse|default|occ |default, !- Name
  {db397755-fed2-4558-8cfa-3bbc0c7ceb61}, !- Schedule Type Limits Name
  ,                                       !- Interpolate to Timestep
  7,                                      !- Hour 1
  0,                                      !- Minute 1
  0,                                      !- Value Until Time 1
  8,                                      !- Hour 2
  0,                                      !- Minute 2
  0.15,                                   !- Value Until Time 2
  9,                                      !- Hour 3
  0,                                      !- Minute 3
  0.7,                                    !- Value Until Time 3
  12,                                     !- Hour 4
  0,                                      !- Minute 4
  0.9,                                    !- Value Until Time 4
  13,                                     !- Hour 5
  0,                                      !- Minute 5
  0.5,                                    !- Value Until Time 5
  16,                                     !- Hour 6
  0,                                      !- Minute 6
  0.85,                                   !- Value Until Time 6
  17,                                     !- Hour 7
  0,                                      !- Minute 7
  0.2,                                    !- Value Until Time 7
  24,                                     !- Hour 8
  0,                                      !- Minute 8
  0;                                      !- Value Until Time 8

OS:Schedule:Day,
  {bbac7d2e-2cbd-4f5f-9b36-1376002e0d2e}, !- Handle
  0700|1700|Warehouse|default|occ Summer Design Day, !- Name
  {db397755-fed2-4558-8cfa-3bbc0c7ceb61}, !- Schedule Type Limits Name
  ,                                       !- Interpolate to Timestep
  7,                                      !- Hour 1
  0,                                      !- Minute 1
  0,                                      !- Value Until Time 1
  8,                                      !- Hour 2
  0,                                      !- Minute 2
  0.15,                                   !- Value Until Time 2
  16,                                     !- Hour 3
  0,                                      !- Minute 3
  1,                                      !- Value Until Time 3
  17,                                     !- Hour 4
  0,                                      !- Minute 4
  0.2,                                    !- Value Until Time 4
  24,                                     !- Hour 5
  0,                                      !- Minute 5
  0;                                      !- Value Until Time 5

OS:Schedule:Day,
  {a3b5c83b-58ad-42cd-ac1d-af6fa118035a}, !- Handle
  0700|1700|Warehouse|default|occ Winter Design Day, !- Name
  {db397755-fed2-4558-8cfa-3bbc0c7ceb61}, !- Schedule Type Limits Name
  ,                                       !- Interpolate to Timestep
  24,                                     !- Hour 1
  0,                                      !- Minute 1
  0;                                      !- Value Until Time 1

OS:Schedule:Rule,
  {929b5c9b-6b4e-4fda-a547-6ac055d7d08b}, !- Handle
  0700|1700|Warehouse|default|occ |1/1-12/31|Sat Rule, !- Name
  {5ec34ba4-e45c-4794-89ef-0294d8b2d89b}, !- Schedule Ruleset Name
  0,                                      !- Rule Order
  {d8f95013-dbea-4d22-b42f-36fba068fc27}, !- Day Schedule Name
  ,                                       !- Apply Sunday
  ,                                       !- Apply Monday
  ,                                       !- Apply Tuesday
  ,                                       !- Apply Wednesday
  ,                                       !- Apply Thursday
  ,                                       !- Apply Friday
  Yes,                                    !- Apply Saturday
  ,                                       !- Apply Holiday
  DateRange,                              !- Date Specification Type
  1,                                      !- Start Month
  1,                                      !- Start Day
  12,                                     !- End Month
  31;                                     !- End Day

OS:Schedule:Day,
  {d8f95013-dbea-4d22-b42f-36fba068fc27}, !- Handle
  0700|1700|Warehouse|default|occ |1/1-12/31|Sat, !- Name
  {db397755-fed2-4558-8cfa-3bbc0c7ceb61}, !- Schedule Type Limits Name
  ,                                       !- Interpolate to Timestep
  8,                                      !- Hour 1
  0,                                      !- Minute 1
  0,                                      !- Value Until Time 1
  12,                                     !- Hour 2
  0,                                      !- Minute 2
  0.2,                                    !- Value Until Time 2
  16,                                     !- Hour 3
  0,                                      !- Minute 3
  0.1,                                    !- Value Until Time 3
  24,                                     !- Hour 4
  0,                                      !- Minute 4
  0;                                      !- Value Until Time 4

OS:Schedule:Rule,
  {dd768c4e-1b3a-45b2-8b1b-e763825696d9}, !- Handle
  0700|1700|Warehouse|default|occ |1/1-12/31|Sun Rule, !- Name
  {5ec34ba4-e45c-4794-89ef-0294d8b2d89b}, !- Schedule Ruleset Name
  1,                                      !- Rule Order
  {24feec1d-2435-44d6-a725-54dd139841a8}, !- Day Schedule Name
  Yes,                                    !- Apply Sunday
  ,                                       !- Apply Monday
  ,                                       !- Apply Tuesday
  ,                                       !- Apply Wednesday
  ,                                       !- Apply Thursday
  ,                                       !- Apply Friday
  ,                                       !- Apply Saturday
  ,                                       !- Apply Holiday
  DateRange,                              !- Date Specification Type
  1,                                      !- Start Month
  1,                                      !- Start Day
  12,                                     !- End Month
  31;                                     !- End Day

OS:Schedule:Day,
  {24feec1d-2435-44d6-a725-54dd139841a8}, !- Handle
  0700|1700|Warehouse|default|occ |1/1-12/31|Sun, !- Name
  {db397755-fed2-4558-8cfa-3bbc0c7ceb61}, !- Schedule Type Limits Name
  ,                                       !- Interpolate to Timestep
  24,                                     !- Hour 1
  0,                                      !- Minute 1
  0;                                      !- Value Until Time 1

OS:Schedule:Ruleset,
  {6f9ba80c-c223-4273-8044-87ed570133bc}, !- Handle
  0700|1700|Warehouse|default|lighting,   !- Name
  {815c17a5-8115-4f19-b568-6a9451228c0d}, !- Schedule Type Limits Name
  {e6e5cda0-c503-4c79-a0c9-7d0f4871a11d}, !- Default Day Schedule Name
  {a8a97fce-93ca-4de5-af11-6efcbff39cc1}, !- Summer Design Day Schedule Name
  {36bb67fd-dd3a-49d8-aff6-92a33fc0f3ee}; !- Winter Design Day Schedule Name

OS:ScheduleTypeLimits,
  {815c17a5-8115-4f19-b568-6a9451228c0d}, !- Handle
  Lights Schedule Type Limits,            !- Name
  0,                                      !- Lower Limit Value {BasedOnField A4}
  1,                                      !- Upper Limit Value {BasedOnField A4}
  Continuous,                             !- Numeric Type
  Dimensionless;                          !- Unit Type

OS:Schedule:Day,
  {e6e5cda0-c503-4c79-a0c9-7d0f4871a11d}, !- Handle
  0700|1700|Warehouse|default|lighting |default, !- Name
  {815c17a5-8115-4f19-b568-6a9451228c0d}, !- Schedule Type Limits Name
  ,                                       !- Interpolate to Timestep
  7,                                      !- Hour 1
  0,                                      !- Minute 1
  0.1,                                    !- Value Until Time 1
  8,                                      !- Hour 2
  0,                                      !- Minute 2
  0.4,                                    !- Value Until Time 2
  9,                                      !- Hour 3
  0,                                      !- Minute 3
  0.7,                                    !- Value Until Time 3
  12,                                     !- Hour 4
  0,                                      !- Minute 4
  0.9,                                    !- Value Until Time 4
  13,                                     !- Hour 5
  0,                                      !- Minute 5
  0.8,                                    !- Value Until Time 5
  17,                                     !- Hour 6
  0,                                      !- Minute 6
  0.9,                                    !- Value Until Time 6
  18,                                     !- Hour 7
  0,                                      !- Minute 7
  0.3,                                    !- Value Until Time 7
  24,                                     !- Hour 8
  0,                                      !- Minute 8
  0.1;                                    !- Value Until Time 8

OS:Schedule:Day,
  {a8a97fce-93ca-4de5-af11-6efcbff39cc1}, !- Handle
  0700|1700|Warehouse|default|lighting Summer Design Day, !- Name
  {815c17a5-8115-4f19-b568-6a9451228c0d}, !- Schedule Type Limits Name
  ,                                       !- Interpolate to Timestep
  7,                                      !- Hour 1
  0,                                      !- Minute 1
  0.1,                                    !- Value Until Time 1
  18,                                     !- Hour 2
  0,                                      !- Minute 2
  1,                                      !- Value Until Time 2
  24,                                     !- Hour 3
  0,                                      !- Minute 3
  0.1;                                    !- Value Until Time 3

OS:Schedule:Day,
  {36bb67fd-dd3a-49d8-aff6-92a33fc0f3ee}, !- Handle
  0700|1700|Warehouse|default|lighting Winter Design Day, !- Name
  {815c17a5-8115-4f19-b568-6a9451228c0d}, !- Schedule Type Limits Name
  ,                                       !- Interpolate to Timestep
  24,                                     !- Hour 1
  0,                                      !- Minute 1
  0.1;                                    !- Value Until Time 1

OS:Schedule:Rule,
  {79f99ab7-0785-4208-a5b9-04ee43256349}, !- Handle
  0700|1700|Warehouse|default|lighting |1/1-12/31|Sat Rule, !- Name
  {6f9ba80c-c223-4273-8044-87ed570133bc}, !- Schedule Ruleset Name
  0,                                      !- Rule Order
  {b58e49e1-4a35-46cc-913a-46e9d5b62af3}, !- Day Schedule Name
  ,                                       !- Apply Sunday
  ,                                       !- Apply Monday
  ,                                       !- Apply Tuesday
  ,                                       !- Apply Wednesday
  ,                                       !- Apply Thursday
  ,                                       !- Apply Friday
  Yes,                                    !- Apply Saturday
  ,                                       !- Apply Holiday
  DateRange,                              !- Date Specification Type
  1,                                      !- Start Month
  1,                                      !- Start Day
  12,                                     !- End Month
  31;                                     !- End Day

OS:Schedule:Day,
  {b58e49e1-4a35-46cc-913a-46e9d5b62af3}, !- Handle
  0700|1700|Warehouse|default|lighting |1/1-12/31|Sat, !- Name
  {815c17a5-8115-4f19-b568-6a9451228c0d}, !- Schedule Type Limits Name
  ,                                       !- Interpolate to Timestep
  9,                                      !- Hour 1
  0,                                      !- Minute 1
  0.1,                                    !- Value Until Time 1
  12,                                     !- Hour 2
  0,                                      !- Minute 2
  0.24,                                   !- Value Until Time 2
  24,                                     !- Hour 3
  0,                                      !- Minute 3
  0.1;                                    !- Value Until Time 3

OS:Schedule:Rule,
  {a428cdf4-5fe4-4ce1-951f-18c58da9492c}, !- Handle
  0700|1700|Warehouse|default|lighting |1/1-12/31|Sun Rule, !- Name
  {6f9ba80c-c223-4273-8044-87ed570133bc}, !- Schedule Ruleset Name
  1,                                      !- Rule Order
  {92330388-1d27-4a95-b2a1-36a1fb278fc7}, !- Day Schedule Name
  Yes,                                    !- Apply Sunday
  ,                                       !- Apply Monday
  ,                                       !- Apply Tuesday
  ,                                       !- Apply Wednesday
  ,                                       !- Apply Thursday
  ,                                       !- Apply Friday
  ,                                       !- Apply Saturday
  ,                                       !- Apply Holiday
  DateRange,                              !- Date Specification Type
  1,                                      !- Start Month
  1,                                      !- Start Day
  12,                                     !- End Month
  31;                                     !- End Day

OS:Schedule:Day,
  {92330388-1d27-4a95-b2a1-36a1fb278fc7}, !- Handle
  0700|1700|Warehouse|default|lighting |1/1-12/31|Sun, !- Name
  {815c17a5-8115-4f19-b568-6a9451228c0d}, !- Schedule Type Limits Name
  ,                                       !- Interpolate to Timestep
  24,                                     !- Hour 1
  0,                                      !- Minute 1
  0.1;                                    !- Value Until Time 1

OS:Schedule:Ruleset,
  {095e3070-9d1a-4873-afa4-4633c79b7c0c}, !- Handle
  0700|1700|Warehouse|default|thermal_ctrl, !- Name
  {329e8cd9-d39a-4cd3-93bc-24a013bd64ba}, !- Schedule Type Limits Name
  {ddbb0ac1-3451-4995-9e35-417c20a0b66e}, !- Default Day Schedule Name
  {e6a135ad-5742-4201-861a-d068ef69056d}, !- Summer Design Day Schedule Name
  {263aba9d-28f4-4f86-8c9c-628c823a57b4}; !- Winter Design Day Schedule Name

OS:ScheduleTypeLimits,
  {329e8cd9-d39a-4cd3-93bc-24a013bd64ba}, !- Handle
  Dimensionless Schedule Type Limits,     !- Name
  ,                                       !- Lower Limit Value {BasedOnField A4}
  ,                                       !- Upper Limit Value {BasedOnField A4}
  Continuous,                             !- Numeric Type
  Dimensionless;                          !- Unit Type

OS:Schedule:Day,
  {ddbb0ac1-3451-4995-9e35-417c20a0b66e}, !- Handle
  0700|1700|Warehouse|default|thermal_ctrl |default, !- Name
  {329e8cd9-d39a-4cd3-93bc-24a013bd64ba}, !- Schedule Type Limits Name
  ,                                       !- Interpolate to Timestep
  24,                                     !- Hour 1
  0,                                      !- Minute 1
  4;                                      !- Value Until Time 1

OS:Schedule:Day,
  {e6a135ad-5742-4201-861a-d068ef69056d}, !- Handle
  0700|1700|Warehouse|default|thermal_ctrl Summer Design Day, !- Name
  {329e8cd9-d39a-4cd3-93bc-24a013bd64ba}, !- Schedule Type Limits Name
  ,                                       !- Interpolate to Timestep
  24,                                     !- Hour 1
  0,                                      !- Minute 1
  4;                                      !- Value Until Time 1

OS:Schedule:Day,
  {263aba9d-28f4-4f86-8c9c-628c823a57b4}, !- Handle
  0700|1700|Warehouse|default|thermal_ctrl Winter Design Day, !- Name
  {329e8cd9-d39a-4cd3-93bc-24a013bd64ba}, !- Schedule Type Limits Name
  ,                                       !- Interpolate to Timestep